data/pglib_opf_case2737sop_k_storage.m
%%%%%%%%%%%%%%%%%%%%%%%%%%%%%%%%%%%%%%%%%%%%%%%%%%%%%%%%%%%%%%%%%%%%%%%%%%%
%%%%                                                                  %%%%%
%%%%    IEEE PES Power Grid Library - Optimal Power Flow - v23.07     %%%%%
%%%%          (https://github.com/power-grid-lib/pglib-opf)           %%%%%
%%%%               Benchmark Group - Typical Operations               %%%%%
%%%%                         23 - July - 2023                         %%%%%
%%%%                                                                  %%%%%
%%%%%%%%%%%%%%%%%%%%%%%%%%%%%%%%%%%%%%%%%%%%%%%%%%%%%%%%%%%%%%%%%%%%%%%%%%%
%
%   Power flow data for Polish system - summer 2004 off-peak.
%   Please see CASEFORMAT for details on the case file format.
%
%   This case represents the Polish 400, 220 and 110 kV networks during
%   summer 2004 off-peak conditions. Multiple centrally dispatchable
%   generators at a bus have not been aggregated. Generators that are
%   not centrally dispatchable in the Polish energy market are given a
%   cost of zero.
%
%   Copyright (c) 2010 by Roman Korab <roman.korab@polsl.pl>
%   Licensed under the Creative Commons Attribution 4.0
%   International license, http://creativecommons.org/licenses/by/4.0/
%
% Modified to have additional storage capacity and increased gencost
function mpc = pglib_opf_case2737sop_k
mpc.version = '2';
mpc.baseMVA = 100.0;

%% bus data
%	bus_i	type	Pd	Qd	Gs	Bs	area	Vm	Va	baseKV	zone	Vmax	Vmin
mpc.bus = [
	1	 1	 0.0	 0.0	 0.0	 0.0	 1	    1.03000	    0.00000	 220.0	 1	    1.11000	    0.95000;
	2	 1	 0.0	 0.0	 0.0	 0.0	 1	    1.03000	    0.00000	 220.0	 1	    1.11000	    0.95000;
	3	 1	 0.0	 0.0	 0.0	 0.0	 1	    1.03000	    0.00000	 220.0	 1	    1.11000	    0.95000;
	4	 1	 0.0	 0.0	 0.0	 0.0	 1	    1.03000	    0.00000	 220.0	 1	    1.11000	    0.95000;
	5	 1	 0.0	 0.0	 0.0	 0.0	 1	    1.03000	    0.00000	 220.0	 1	    1.11000	    0.95000;
	6	 1	 0.0	 0.0	 0.0	 0.0	 1	    1.03000	    0.00000	 220.0	 1	    1.11000	    0.95000;
	7	 1	 0.0	 0.0	 0.0	 0.0	 1	    1.03000	    0.00000	 220.0	 1	    1.11000	    0.95000;
	8	 1	 0.0	 0.0	 0.0	 -50.0	 1	    1.00000	    0.00000	 400.0	 1	    1.05000	    0.95000;
	9	 1	 0.0	 0.0	 0.0	 0.0	 1	    1.00000	    0.00000	 400.0	 1	    1.05000	    0.95000;
	10	 1	 0.0	 0.0	 0.0	 0.0	 1	    1.03000	    0.00000	 220.0	 1	    1.11000	    0.95000;
	11	 1	 0.0	 0.0	 0.0	 0.0	 1	    1.03000	    0.00000	 220.0	 1	    1.11000	    0.95000;
	12	 1	 0.0	 0.0	 0.0	 0.0	 1	    1.03000	    0.00000	 220.0	 1	    1.11000	    0.95000;
	13	 1	 0.0	 0.0	 0.0	 0.0	 1	    1.03000	    0.00000	 220.0	 1	    1.11000	    0.95000;
	14	 1	 0.0	 0.0	 0.0	 -50.0	 1	    1.00000	    0.00000	 400.0	 1	    1.05000	    0.95000;
	15	 1	 0.0	 0.0	 0.0	 0.0	 1	    1.00000	    0.00000	 400.0	 1	    1.05000	    0.95000;
	16	 1	 0.0	 0.0	 0.0	 0.0	 1	    1.00000	    0.00000	 400.0	 1	    1.05000	    0.95000;
	17	 1	 0.0	 0.0	 0.0	 0.0	 1	    1.03000	    0.00000	 220.0	 1	    1.11000	    0.95000;
	18	 1	 0.0	 0.0	 0.0	 0.0	 1	    1.03000	    0.00000	 220.0	 1	    1.11000	    0.95000;
	19	 1	 0.0	 0.0	 0.0	 0.0	 1	    1.03000	    0.00000	 220.0	 1	    1.11000	    0.95000;
	20	 1	 0.0	 0.0	 0.0	 0.0	 1	    1.03000	    0.00000	 220.0	 1	    1.11000	    0.95000;
	21	 1	 0.0	 0.0	 0.0	 0.0	 1	    1.03000	    0.00000	 220.0	 1	    1.11000	    0.95000;
	22	 1	 0.0	 0.0	 0.0	 0.0	 1	    1.03000	    0.00000	 220.0	 1	    1.11000	    0.95000;
	23	 1	 0.0	 0.0	 0.0	 0.0	 1	    1.03000	    0.00000	 220.0	 1	    1.11000	    0.95000;
	24	 1	 0.0	 0.0	 0.0	 0.0	 1	    1.03000	    0.00000	 220.0	 1	    1.11000	    0.95000;
	25	 1	 0.0	 0.0	 0.0	 -50.0	 1	    1.00000	    0.00000	 400.0	 1	    1.05000	    0.95000;
	26	 2	 48.178	 65.087	 0.0	 0.0	 1	    1.03000	    0.00000	 220.0	 1	    1.11000	    0.95000;
	27	 2	 28.145	 35.087	 0.0	 0.0	 1	    1.03000	    0.00000	 220.0	 1	    1.11000	    0.95000;
	28	 3	 0.0	 0.0	 0.0	 0.0	 1	    1.00000	    0.00000	 400.0	 1	    1.05000	    0.95000;
	29	 2	 44.698	 72.0	 0.0	 0.0	 1	    1.00000	    0.00000	 400.0	 1	    1.05000	    0.95000;
	30	 1	 0.0	 0.0	 0.0	 0.0	 1	    1.03000	    0.00000	 220.0	 1	    1.11000	    0.95000;
	31	 1	 0.0	 0.0	 0.0	 0.0	 1	    1.00000	    0.00000	 400.0	 1	    1.05000	    0.95000;
	32	 1	 0.0	 0.0	 0.0	 0.0	 1	    1.03000	    0.00000	 220.0	 1	    1.11000	    0.95000;
	33	 1	 0.0	 0.0	 0.0	 0.0	 1	    1.03000	    0.00000	 220.0	 1	    1.11000	    0.95000;
	34	 1	 0.0	 0.0	 0.0	 0.0	 1	    1.03000	    0.00000	 220.0	 2	    1.11000	    0.95000;
	35	 1	 0.0	 0.0	 0.0	 0.0	 1	    1.03000	    0.00000	 220.0	 2	    1.11000	    0.95000;
	36	 1	 0.0	 0.0	 0.0	 0.0	 1	    1.03000	    0.00000	 220.0	 2	    1.11000	    0.95000;
	37	 1	 0.0	 0.0	 0.0	 0.0	 1	    1.03000	    0.00000	 220.0	 2	    1.11000	    0.95000;
	38	 1	 0.0	 0.0	 0.0	 0.0	 1	    1.03000	    0.00000	 220.0	 2	    1.11000	    0.95000;
	39	 1	 0.0	 0.0	 0.0	 0.0	 1	    1.03000	    0.00000	 220.0	 2	    1.11000	    0.95000;
	40	 1	 0.0	 0.0	 0.0	 0.0	 1	    1.03000	    0.00000	 220.0	 2	    1.11000	    0.95000;
	41	 1	 0.0	 0.0	 0.0	 0.0	 1	    1.00000	    0.00000	 400.0	 2	    1.05000	    0.95000;
	42	 2	 13.0	 0.0	 0.0	 0.0	 1	    1.03000	    0.00000	 220.0	 2	    1.11000	    0.95000;
	43	 2	 13.0	 0.0	 0.0	 0.0	 1	    1.03000	    0.00000	 220.0	 2	    1.11000	    0.95000;
	44	 2	 25.0	 0.0	 0.0	 0.0	 1	    1.00000	    0.00000	 400.0	 2	    1.05000	    0.95000;
	45	 1	 0.0	 0.0	 0.0	 0.0	 1	    1.00000	    0.00000	 400.0	 2	    1.05000	    0.95000;
	46	 1	 0.0	 0.0	 0.0	 0.0	 1	    1.03000	    0.00000	 220.0	 2	    1.11000	    0.95000;
	47	 1	 0.0	 0.0	 0.0	 0.0	 1	    1.00000	    0.00000	 400.0	 2	    1.05000	    0.95000;
	48	 1	 0.0	 0.0	 0.0	 0.0	 1	    1.00000	    0.00000	 400.0	 2	    1.05000	    0.95000;
	49	 1	 0.0	 0.0	 0.0	 0.0	 1	    1.00000	    0.00000	 400.0	 2	    1.05000	    0.95000;
	50	 1	 0.0	 0.0	 0.0	 0.0	 1	    1.03000	    0.00000	 220.0	 2	    1.11000	    0.95000;
	51	 1	 0.0	 0.0	 0.0	 0.0	 1	    1.03000	    0.00000	 220.0	 2	    1.11000	    0.95000;
	52	 1	 0.0	 0.0	 0.0	 0.0	 1	    1.00000	    0.00000	 400.0	 2	    1.05000	    0.95000;
	53	 1	 0.0	 0.0	 0.0	 0.0	 1	    1.00000	    0.00000	 400.0	 2	    1.05000	    0.95000;
	54	 1	 0.0	 0.0	 0.0	 0.0	 1	    1.03000	    0.00000	 220.0	 2	    1.11000	    0.95000;
	55	 2	 13.0	 0.0	 0.0	 0.0	 1	    1.03000	    0.00000	 220.0	 2	    1.11000	    0.95000;
	56	 2	 13.0	 0.0	 0.0	 0.0	 1	    1.00000	    0.00000	 400.0	 2	    1.05000	    0.95000;
	57	 2	 13.0	 0.0	 0.0	 0.0	 1	    1.00000	    0.00000	 400.0	 2	    1.05000	    0.95000;
	58	 2	 67.882	 25.273	 0.0	 0.0	 1	    1.03000	    0.00000	 220.0	 2	    1.11000	    0.95000;
	59	 1	 0.0	 0.0	 0.0	 0.0	 1	    1.03000	    0.00000	 220.0	 2	    1.11000	    0.95000;
	60	 1	 0.0	 0.0	 0.0	 0.0	 1	    1.03000	    0.00000	 220.0	 2	    1.11000	    0.95000;
	61	 1	 0.0	 0.0	 0.0	 0.0	 1	    1.03000	    0.00000	 220.0	 2	    1.11000	    0.95000;
	62	 1	 0.0	 0.0	 0.0	 0.0	 1	    1.03000	    0.00000	 220.0	 2	    1.11000	    0.95000;
	63	 1	 0.0	 0.0	 0.0	 0.0	 1	    1.00000	    0.00000	 400.0	 2	    1.05000	    0.95000;
	64	 1	 0.0	 0.0	 0.0	 0.0	 1	    1.00000	    0.00000	 400.0	 2	    1.05000	    0.95000;
	65	 1	 0.0	 224.802	 0.0	 0.0	 1	    0.97500	    0.00000	 750.0	 2	    1.05000	    0.90000;
	66	 1	 0.0	 0.0	 0.0	 0.0	 1	    1.03000	    0.00000	 220.0	 2	    1.11000	    0.95000;
	67	 1	 0.0	 0.0	 0.0	 0.0	 1	    1.03000	    0.00000	 220.0	 2	    1.11000	    0.95000;
	68	 1	 0.0	 0.0	 0.0	 0.0	 1	    1.03000	    0.00000	 220.0	 2	    1.11000	    0.95000;
	69	 1	 0.0	 0.0	 0.0	 0.0	 1	    1.03000	    0.00000	 220.0	 3	    1.11000	    0.95000;
	70	 1	 0.0	 0.0	 0.0	 0.0	 1	    1.03000	    0.00000	 220.0	 3	    1.11000	    0.95000;
	71	 1	 0.0	 0.0	 0.0	 0.0	 1	    1.03000	    0.00000	 220.0	 3	    1.11000	    0.95000;
	72	 1	 0.0	 0.0	 0.0	 0.0	 1	    1.03000	    0.00000	 220.0	 3	    1.11000	    0.95000;
	73	 1	 0.0	 0.0	 0.0	 0.0	 1	    1.03000	    0.00000	 220.0	 3	    1.11000	    0.95000;
	74	 1	 0.0	 0.0	 0.0	 0.0	 1	    1.03000	    0.00000	 220.0	 3	    1.11000	    0.95000;
	75	 1	 0.0	 0.0	 0.0	 0.0	 1	    1.03000	    0.00000	 220.0	 3	    1.11000	    0.95000;
	76	 1	 0.0	 0.0	 0.0	 0.0	 1	    1.03000	    0.00000	 220.0	 3	    1.11000	    0.95000;
	77	 1	 0.0	 0.0	 0.0	 0.0	 1	    1.03000	    0.00000	 220.0	 3	    1.11000	    0.95000;
	78	 2	 27.0	 70.0	 0.0	 0.0	 1	    1.03000	    0.00000	 220.0	 3	    1.11000	    0.95000;
	79	 2	 9.0	 21.0	 0.0	 0.0	 1	    1.03000	    0.00000	 220.0	 3	    1.11000	    0.95000;
	80	 1	 4.602	 0.91	 0.0	 0.0	 1	    1.03000	    0.00000	 220.0	 3	    1.11000	    0.95000;
	81	 1	 0.0	 0.0	 0.0	 0.0	 1	    1.03000	    0.00000	 220.0	 3	    1.11000	    0.95000;
	82	 2	 18.0	 57.0	 0.0	 0.0	 1	    1.00000	    0.00000	 400.0	 3	    1.05000	    0.95000;
	83	 1	 0.0	 0.0	 0.0	 0.0	 1	    1.03000	    0.00000	 220.0	 3	    1.11000	    0.95000;
	84	 1	 0.0	 0.0	 0.0	 0.0	 1	    1.03000	    0.00000	 220.0	 3	    1.11000	    0.95000;
	85	 1	 0.0	 0.0	 0.0	 0.0	 1	    1.03000	    0.00000	 220.0	 3	    1.11000	    0.95000;
	86	 1	 32.969	 -8.4	 0.0	 0.0	 1	    1.03000	    0.00000	 220.0	 3	    1.11000	    0.95000;
	87	 1	 0.0	 0.0	 0.0	 0.0	 1	    1.03000	    0.00000	 220.0	 3	    1.11000	    0.95000;
	88	 1	 0.0	 0.0	 0.0	 0.0	 1	    1.03000	    0.00000	 220.0	 3	    1.11000	    0.95000;
	89	 1	 0.0	 0.0	 0.0	 0.0	 1	    1.03000	    0.00000	 220.0	 3	    1.11000	    0.95000;
	90	 1	 0.0	 0.0	 0.0	 0.0	 1	    1.03000	    0.00000	 220.0	 3	    1.11000	    0.95000;
	91	 1	 0.0	 0.0	 0.0	 0.0	 1	    1.03000	    0.00000	 220.0	 3	    1.11000	    0.95000;
	92	 1	 0.0	 0.0	 0.0	 0.0	 1	    1.00000	    0.00000	 400.0	 3	    1.05000	    0.95000;
	93	 1	 0.0	 0.0	 0.0	 0.0	 1	    1.00000	    0.00000	 400.0	 3	    1.05000	    0.95000;
	94	 1	 0.0	 0.0	 0.0	 0.0	 1	    1.03000	    0.00000	 220.0	 3	    1.11000	    0.95000;
	95	 1	 0.0	 0.0	 0.0	 0.0	 1	    1.03000	    0.00000	 220.0	 3	    1.11000	    0.95000;
	96	 1	 0.0	 0.0	 0.0	 0.0	 1	    1.03000	    0.00000	 220.0	 3	    1.11000	    0.95000;
	97	 1	 0.0	 0.0	 0.0	 0.0	 1	    1.03000	    0.00000	 220.0	 3	    1.11000	    0.95000;
	98	 2	 9.938	 2.19	 0.0	 0.0	 1	    1.03000	    0.00000	 220.0	 3	    1.11000	    0.95000;
	99	 1	 16.652	 3.293	 0.0	 0.0	 1	    1.03000	    0.00000	 220.0	 3	    1.11000	    0.95000;
	100	 1	 0.0	 0.0	 0.0	 0.0	 1	    1.03000	    0.00000	 220.0	 3	    1.11000	    0.95000;
	101	 1	 0.0	 0.0	 0.0	 0.0	 1	    1.03000	    0.00000	 220.0	 3	    1.11000	    0.95000;
	102	 1	 0.0	 0.0	 0.0	 0.0	 1	    1.03000	    0.00000	 220.0	 3	    1.11000	    0.95000;
	103	 1	 0.0	 0.0	 0.0	 0.0	 1	    1.03000	    0.00000	 220.0	 3	    1.11000	    0.95000;
	104	 2	 14.0	 40.0	 0.0	 0.0	 1	    1.03000	    0.00000	 220.0	 3	    1.11000	    0.95000;
	105	 1	 0.0	 0.0	 0.0	 0.0	 1	    1.03000	    0.00000	 220.0	 3	    1.11000	    0.95000;
	106	 2	 7.0	 18.0	 0.0	 0.0	 1	    1.03000	    0.00000	 220.0	 3	    1.11000	    0.95000;
	107	 1	 0.0	 0.0	 0.0	 0.0	 1	    1.03000	    0.00000	 220.0	 3	    1.11000	    0.95000;
	108	 1	 27.63	 5.872	 0.0	 0.0	 1	    1.03000	    0.00000	 220.0	 3	    1.11000	    0.95000;
	109	 1	 17.522	 3.337	 0.0	 0.0	 1	    1.03000	    0.00000	 220.0	 3	    1.11000	    0.95000;
	110	 1	 0.0	 0.0	 0.0	 0.0	 1	    1.03000	    0.00000	 220.0	 3	    1.11000	    0.95000;
	111	 1	 0.0	 0.0	 0.0	 0.0	 1	    1.03000	    0.00000	 220.0	 3	    1.11000	    0.95000;
	112	 1	 0.0	 0.0	 0.0	 0.0	 1	    1.03000	    0.00000	 220.0	 3	    1.11000	    0.95000;
	113	 1	 0.0	 0.0	 0.0	 0.0	 1	    1.03000	    0.00000	 220.0	 3	    1.11000	    0.95000;
	114	 1	 0.0	 0.0	 0.0	 0.0	 1	    1.03000	    0.00000	 220.0	 3	    1.11000	    0.95000;
	115	 1	 0.0	 0.0	 0.0	 0.0	 1	    1.00000	    0.00000	 400.0	 3	    1.05000	    0.95000;
	116	 1	 0.0	 0.0	 0.0	 0.0	 1	    1.03000	    0.00000	 220.0	 3	    1.11000	    0.95000;
	117	 2	 8.0	 15.0	 0.0	 0.0	 1	    1.03000	    0.00000	 220.0	 3	    1.11000	    0.95000;
	118	 1	 0.0	 0.0	 0.0	 0.0	 1	    1.03000	    0.00000	 220.0	 3	    1.11000	    0.95000;
	119	 1	 0.0	 0.0	 0.0	 0.0	 1	    1.03000	    0.00000	 220.0	 3	    1.11000	    0.95000;
	120	 1	 0.0	 0.0	 0.0	 0.0	 1	    1.00000	    0.00000	 400.0	 3	    1.05000	    0.95000;
	121	 1	 0.0	 0.0	 0.0	 0.0	 1	    1.00000	    0.00000	 400.0	 3	    1.05000	    0.95000;
	122	 1	 0.0	 0.0	 0.0	 0.0	 1	    1.00000	    0.00000	 400.0	 3	    1.05000	    0.95000;
	123	 1	 0.0	 0.0	 0.0	 0.0	 1	    1.00000	    0.00000	 400.0	 3	    1.05000	    0.95000;
	124	 1	 0.0	 0.0	 0.0	 0.0	 1	    1.03000	    0.00000	 220.0	 3	    1.11000	    0.95000;
	125	 1	 2.929	 0.867	 0.0	 0.0	 1	    1.03000	    0.00000	 220.0	 3	    1.11000	    0.95000;
	126	 2	 19.898	 27.707	 0.0	 0.0	 1	    1.03000	    0.00000	 220.0	 3	    1.11000	    0.95000;
	127	 2	 12.2	 25.8	 0.0	 0.0	 1	    1.00000	    0.00000	 400.0	 3	    1.05000	    0.95000;
	128	 1	 0.0	 0.0	 0.0	 0.0	 1	    1.00000	    0.00000	 400.0	 3	    1.05000	    0.95000;
	129	 1	 0.0	 0.0	 0.0	 0.0	 1	    1.03000	    0.00000	 220.0	 3	    1.11000	    0.95000;
	130	 1	 0.0	 0.0	 0.0	 0.0	 1	    1.03000	    0.00000	 220.0	 3	    1.11000	    0.95000;
	131	 1	 0.0	 0.0	 0.0	 0.0	 1	    1.03000	    0.00000	 220.0	 3	    1.11000	    0.95000;
	132	 2	 137.0	 9.0	 0.0	 0.0	 1	    1.03000	    0.00000	 220.0	 3	    1.11000	    0.95000;
	133	 2	 137.0	 6.0	 0.0	 0.0	 1	    1.03000	    0.00000	 220.0	 3	    1.11000	    0.95000;
	134	 1	 0.515	 1.973	 0.0	 0.0	 1	    1.03000	    0.00000	 220.0	 4	    1.11000	    0.95000;
	135	 2	 15.242	 14.277	 0.0	 0.0	 1	    1.03000	    0.00000	 220.0	 4	    1.11000	    0.95000;
	136	 1	 0.0	 0.0	 0.0	 0.0	 1	    1.03000	    0.00000	 220.0	 4	    1.11000	    0.95000;
	137	 1	 0.0	 0.0	 0.0	 0.0	 1	    1.03000	    0.00000	 220.0	 4	    1.11000	    0.95000;
	138	 1	 0.0	 0.0	 0.0	 0.0	 1	    1.00000	    0.00000	 400.0	 4	    1.05000	    0.95000;
	139	 1	 0.0	 0.0	 0.0	 0.0	 1	    1.00000	    0.00000	 400.0	 4	    1.05000	    0.95000;
	140	 1	 0.0	 0.0	 0.0	 0.0	 1	    1.03000	    0.00000	 220.0	 4	    1.11000	    0.95000;
	141	 1	 0.0	 0.0	 0.0	 0.0	 1	    1.03000	    0.00000	 220.0	 4	    1.11000	    0.95000;
	142	 1	 0.0	 0.0	 0.0	 0.0	 1	    1.03000	    0.00000	 220.0	 4	    1.11000	    0.95000;
	143	 1	 0.0	 0.0	 0.0	 0.0	 1	    1.03000	    0.00000	 220.0	 4	    1.11000	    0.95000;
	144	 1	 0.0	 0.0	 0.0	 0.0	 1	    1.03000	    0.00000	 220.0	 4	    1.11000	    0.95000;
	145	 1	 0.0	 0.0	 0.0	 0.0	 1	    1.03000	    0.00000	 220.0	 4	    1.11000	    0.95000;
	146	 1	 7.636	 13.257	 0.0	 0.0	 1	    1.03000	    0.00000	 220.0	 4	    1.11000	    0.95000;
	147	 1	 0.0	 0.0	 0.0	 0.0	 1	    1.03000	    0.00000	 220.0	 4	    1.11000	    0.95000;
	148	 2	 10.87	 14.867	 0.0	 0.0	 1	    1.03000	    0.00000	 220.0	 4	    1.11000	    0.95000;
	149	 1	 0.0	 0.0	 0.0	 0.0	 1	    1.03000	    0.00000	 220.0	 4	    1.11000	    0.95000;
	150	 2	 10.989	 15.0	 0.0	 0.0	 1	    1.00000	    0.00000	 400.0	 4	    1.05000	    0.95000;
	151	 2	 20.672	 21.479	 0.0	 0.0	 1	    1.00000	    0.00000	 400.0	 4	    1.05000	    0.95000;
	152	 1	 0.0	 0.0	 0.0	 0.0	 1	    1.03000	    0.00000	 220.0	 4	    1.11000	    0.95000;
	153	 1	 0.0	 0.0	 0.0	 0.0	 1	    1.03000	    0.00000	 220.0	 4	    1.11000	    0.95000;
	154	 1	 0.0	 0.0	 0.0	 0.0	 1	    1.03000	    0.00000	 220.0	 4	    1.11000	    0.95000;
	155	 2	 0.0	 0.0	 0.0	 0.0	 1	    1.03000	    0.00000	 220.0	 4	    1.11000	    0.95000;
	156	 2	 13.87	 33.0	 0.0	 0.0	 1	    1.03000	    0.00000	 220.0	 4	    1.11000	    0.95000;
	157	 1	 0.0	 0.0	 0.0	 0.0	 1	    1.00000	    0.00000	 400.0	 4	    1.05000	    0.95000;
	158	 2	 9.989	 25.0	 0.0	 0.0	 1	    1.00000	    0.00000	 400.0	 4	    1.05000	    0.95000;
	159	 1	 0.0	 0.0	 0.0	 0.0	 1	    1.03000	    0.00000	 220.0	 4	    1.11000	    0.95000;
	160	 1	 0.0	 0.0	 0.0	 0.0	 1	    1.03000	    0.00000	 220.0	 4	    1.11000	    0.95000;
	161	 1	 0.0	 0.0	 0.0	 0.0	 1	    1.00000	    0.00000	 400.0	 4	    1.05000	    0.95000;
	162	 1	 0.0	 0.0	 0.0	 0.0	 1	    1.00000	    0.00000	 400.0	 4	    1.05000	    0.95000;
	163	 1	 0.0	 0.0	 0.0	 0.0	 1	    1.00000	    0.00000	 400.0	 4	    1.05000	    0.95000;
	164	 2	 11.664	 11.0	 0.0	 0.0	 1	    1.03000	    0.00000	 220.0	 4	    1.11000	    0.95000;
	165	 2	 11.564	 10.667	 0.0	 0.0	 1	    1.03000	    0.00000	 220.0	 4	    1.11000	    0.95000;
	166	 1	 0.0	 0.0	 0.0	 0.0	 1	    1.03000	    0.00000	 220.0	 4	    1.11000	    0.95000;
	167	 1	 0.0	 0.0	 0.0	 0.0	 1	    1.03000	    0.00000	 220.0	 4	    1.11000	    0.95000;
	168	 1	 0.0	 0.0	 0.0	 0.0	 1	    1.03000	    0.00000	 220.0	 4	    1.11000	    0.95000;
	169	 1	 0.0	 0.0	 0.0	 0.0	 1	    1.03000	    0.00000	 220.0	 4	    1.11000	    0.95000;
	170	 1	 0.0	 0.0	 0.0	 0.0	 1	    1.03000	    0.00000	 220.0	 4	    1.11000	    0.95000;
	171	 1	 0.0	 0.0	 0.0	 0.0	 1	    1.00000	    0.00000	 400.0	 4	    1.05000	    0.95000;
	172	 1	 0.0	 0.0	 0.0	 0.0	 1	    1.00000	    0.00000	 400.0	 4	    1.05000	    0.95000;
	173	 1	 0.0	 0.0	 0.0	 0.0	 1	    1.03000	    0.00000	 220.0	 4	    1.11000	    0.95000;
	174	 1	 0.0	 0.0	 0.0	 0.0	 1	    1.03000	    0.00000	 220.0	 4	    1.11000	    0.95000;
	175	 1	 0.0	 0.0	 0.0	 0.0	 1	    1.03000	    0.00000	 220.0	 4	    1.11000	    0.95000;
	176	 1	 0.0	 0.0	 0.0	 0.0	 1	    1.03000	    0.00000	 220.0	 4	    1.11000	    0.95000;
	177	 1	 0.0	 0.0	 0.0	 0.0	 1	    1.03000	    0.00000	 220.0	 4	    1.11000	    0.95000;
	178	 1	 0.0	 0.0	 0.0	 0.0	 1	    1.03000	    0.00000	 220.0	 4	    1.11000	    0.95000;
	179	 1	 0.0	 0.0	 0.0	 0.0	 1	    1.03000	    0.00000	 220.0	 4	    1.11000	    0.95000;
	180	 2	 3.13	 1.5	 0.0	 0.0	 1	    1.03000	    0.00000	 220.0	 4	    1.11000	    0.95000;
	181	 1	 0.0	 0.0	 0.0	 0.0	 1	    1.03000	    0.00000	 220.0	 4	    1.11000	    0.95000;
	182	 1	 0.0	 0.0	 0.0	 0.0	 1	    1.03000	    0.00000	 220.0	 5	    1.11000	    0.95000;
	183	 1	 0.0	 0.0	 0.0	 0.0	 1	    1.03000	    0.00000	 220.0	 5	    1.11000	    0.95000;
	184	 1	 0.0	 0.0	 0.0	 0.0	 1	    1.00000	    0.00000	 400.0	 5	    1.05000	    0.95000;
	185	 1	 0.0	 0.0	 0.0	 0.0	 1	    1.00000	    0.00000	 400.0	 5	    1.05000	    0.95000;
	186	 1	 0.0	 0.0	 0.0	 0.0	 1	    1.00000	    0.00000	 400.0	 5	    1.05000	    0.95000;
	187	 1	 0.0	 0.0	 0.0	 0.0	 1	    1.00000	    0.00000	 400.0	 5	    1.05000	    0.95000;
	188	 1	 0.0	 0.0	 0.0	 0.0	 1	    1.03000	    0.00000	 220.0	 5	    1.11000	    0.95000;
	189	 1	 0.0	 0.0	 0.0	 0.0	 1	    1.03000	    0.00000	 220.0	 5	    1.11000	    0.95000;
	190	 1	 0.0	 0.0	 0.0	 0.0	 1	    1.03000	    0.00000	 220.0	 5	    1.11000	    0.95000;
	191	 1	 0.0	 0.0	 0.0	 0.0	 1	    1.03000	    0.00000	 220.0	 5	    1.11000	    0.95000;
	192	 1	 0.0	 0.0	 0.0	 0.0	 1	    1.00000	    0.00000	 400.0	 5	    1.05000	    0.95000;
	193	 1	 0.0	 0.0	 0.0	 0.0	 1	    1.03000	    0.00000	 220.0	 5	    1.11000	    0.95000;
	194	 1	 0.0	 0.0	 0.0	 0.0	 1	    1.03000	    0.00000	 220.0	 5	    1.11000	    0.95000;
	195	 1	 0.0	 0.0	 0.0	 0.0	 1	    1.00000	    0.00000	 400.0	 5	    1.05000	    0.95000;
	196	 1	 0.0	 0.0	 0.0	 0.0	 1	    1.00000	    0.00000	 400.0	 5	    1.05000	    0.95000;
	197	 1	 0.0	 0.0	 0.0	 0.0	 1	    1.03000	    0.00000	 220.0	 5	    1.11000	    0.95000;
	198	 1	 0.0	 0.0	 0.0	 0.0	 1	    1.03000	    0.00000	 220.0	 5	    1.11000	    0.95000;
	199	 1	 0.0	 0.0	 0.0	 -117.0	 1	    1.00000	    0.00000	 400.0	 5	    1.05000	    0.95000;
	200	 1	 0.0	 0.0	 0.0	 0.0	 1	    1.00000	    0.00000	 400.0	 5	    1.05000	    0.95000;
...
];

%% generator data
%	bus	Pg	Qg	Qmax	Qmin	Vg	mBase	status	Pmax	Pmin
mpc.gen = [
	17	 0.0	 0.0	 120.0	 -22.0	 1.03	 241.9	 0	 210.0	 140.0;
	17	 0.0	 0.0	 120.0	 -22.0	 1.03	 233.2	 0	 200.0	 140.0;
	26	 330.0	 85.5	 190.0	 -19.0	 1.03	 415.9	 1	 370.0	 290.0;
	27	 325.0	 85.5	 190.0	 -19.0	 1.03	 407.1	 1	 360.0	 290.0;
	27	 0.0	 0.0	 190.0	 -19.0	 1.03	 407.1	 0	 360.0	 290.0;
	27	 0.0	 0.0	 190.0	 -19.0	 1.03	 415.9	 0	 370.0	 290.0;
	26	 330.0	 85.5	 190.0	 -19.0	 1.03	 415.9	 1	 370.0	 290.0;
	28	 330.0	 85.5	 190.0	 -19.0	 1.0	 415.9	 1	 370.0	 290.0;
	28	 0.0	 0.0	 190.0	 -19.0	 1.0	 415.9	 0	 370.0	 290.0;
	28	 0.0	 0.0	 190.0	 -19.0	 1.0	 415.9	 0	 370.0	 290.0;
	29	 0.0	 0.0	 190.0	 -19.0	 1.0	 415.9	 0	 370.0	 290.0;
	29	 330.0	 85.5	 190.0	 -19.0	 1.0	 415.9	 1	 370.0	 290.0;
	29	 330.0	 85.5	 190.0	 -19.0	 1.0	 415.9	 1	 370.0	 290.0;
	42	 172.5	 50.5	 135.0	 -34.0	 1.03	 253.9	 1	 215.0	 130.0;
	42	 0.0	 0.0	 130.0	 -34.0	 1.03	 242.7	 0	 205.0	 135.0;
	42	 0.0	 0.0	 145.0	 -34.0	 1.03	 267.7	 0	 225.0	 110.0;
	43	 0.0	 0.0	 145.0	 -34.0	 1.03	 267.7	 0	 225.0	 120.0;
	43	 177.5	 55.5	 145.0	 -34.0	 1.03	 267.7	 1	 225.0	 130.0;
	43	 0.0	 0.0	 130.0	 -34.0	 1.03	 242.7	 0	 205.0	 135.0;
	44	 395.0	 158.0	 363.0	 -47.0	 1.0	 646.5	 1	 535.0	 255.0;
	44	 0.0	 0.0	 348.0	 -100.0	 1.0	 659.3	 0	 560.0	 250.0;
	54	 0.0	 0.0	 104.0	 -1.0	 1.03	 247.9	 0	 225.0	 129.0;
	55	 177.0	 57.0	 130.0	 -16.0	 1.03	 259.9	 1	 225.0	 129.0;
	54	 0.0	 0.0	 130.0	 -16.0	 1.03	 259.9	 0	 225.0	 129.0;
	56	 177.0	 57.0	 130.0	 -16.0	 1.0	 259.9	 1	 225.0	 129.0;
	57	 177.0	 57.0	 130.0	 -16.0	 1.0	 259.9	 1	 225.0	 129.0;
	57	 0.0	 0.0	 104.0	 -1.0	 1.0	 247.9	 0	 225.0	 129.0;
	57	 0.0	 0.0	 130.0	 -16.0	 1.0	 259.9	 0	 225.0	 129.0;
	58	 39.7	 15.0	 30.0	 0.0	 1.03	 57.7	 1	 39.7	 39.7;
	78	 182.5	 54.0	 123.0	 -15.0	 1.03	 256.4	 1	 225.0	 140.0;
	78	 182.5	 54.0	 123.0	 -15.0	 1.03	 256.4	 1	 225.0	 140.0;
	79	 0.0	 0.0	 123.0	 -15.0	 1.03	 252.0	 0	 220.0	 140.0;
	79	 0.0	 0.0	 123.0	 -15.0	 1.03	 256.4	 0	 225.0	 140.0;
	79	 182.5	 54.0	 123.0	 -15.0	 1.03	 256.4	 1	 225.0	 140.0;
	82	 300.0	 100.5	 232.0	 -31.0	 1.0	 445.2	 1	 380.0	 220.0;
	82	 0.0	 0.0	 228.0	 -30.0	 1.0	 434.6	 0	 370.0	 220.0;
	98	 8.998	 0.5	 1.0	 0.0	 1.03	 12.0	 1	 8.998	 8.998;
	98	 5.998	 0.5	 1.0	 0.0	 1.03	 6.1	 1	 5.998	 5.998;
	104	 179.5	 54.0	 123.0	 -15.0	 1.03	 256.4	 1	 225.0	 134.0;
	105	 0.0	 0.0	 123.0	 -15.0	 1.03	 256.4	 0	 225.0	 134.0;
	106	 99.5	 39.0	 80.0	 -2.0	 1.03	 144.2	 1	 120.0	 79.0;
	107	 0.0	 0.0	 80.0	 -2.0	 1.03	 144.2	 0	 120.0	 79.0;
	116	 0.0	 0.0	 90.0	 -20.0	 1.03	 150.0	 0	 120.0	 90.0;
	117	 95.0	 40.0	 82.0	 -2.0	 1.03	 145.3	 1	 120.0	 70.0;
	118	 0.0	 0.0	 40.0	 0.0	 1.03	 117.0	 0	 110.0	 80.0;
	125	 0.0	 0.0	 135.0	 -35.0	 1.03	 253.9	 0	 215.0	 160.0;
	126	 0.0	 0.0	 140.0	 -35.0	 1.03	 265.0	 0	 225.0	 140.0;
	126	 187.5	 50.0	 135.0	 -35.0	 1.03	 253.9	 1	 215.0	 160.0;
	127	 182.5	 50.0	 140.0	 -40.0	 1.0	 265.0	 1	 225.0	 140.0;
	127	 0.0	 0.0	 137.0	 -40.0	 1.0	 259.2	 0	 220.0	 160.0;
	132	 0.0	 1.0	 40.0	 -38.0	 1.03	 131.2	 1	 0.0	 0.0;
	132	 0.0	 0.0	 40.0	 -38.0	 1.03	 131.2	 0	 0.0	 0.0;
	133	 0.0	 0.0	 40.0	 -38.0	 1.03	 131.2	 0	 0.0	 0.0;
	133	 0.0	 1.0	 40.0	 -38.0	 1.03	 131.2	 1	 0.0	 0.0;
	134	 0.0	 0.0	 90.0	 0.0	 1.03	 150.0	 0	 120.0	 100.0;
	134	 0.0	 0.0	 90.0	 0.0	 1.03	 150.0	 0	 120.0	 100.0;
	135	 110.0	 45.0	 90.0	 0.0	 1.03	 150.0	 1	 120.0	 100.0;
	146	 0.0	 0.0	 12.0	 0.0	 1.03	 51.4	 0	 50.0	 30.0;
	146	 0.0	 0.0	 12.0	 0.0	 1.03	 51.4	 0	 50.0	 30.0;
	147	 0.0	 0.0	 90.0	 0.0	 1.03	 150.0	 0	 120.0	 90.0;
	148	 0.0	 0.0	 149.0	 -48.0	 1.03	 267.4	 0	 222.0	 90.0;
	148	 0.0	 0.0	 149.0	 -48.0	 1.03	 253.4	 0	 205.0	 135.0;
	148	 0.0	 0.0	 149.0	 -48.0	 1.03	 253.4	 0	 205.0	 135.0;
	148	 156.0	 50.5	 149.0	 -48.0	 1.03	 267.4	 1	 222.0	 90.0;
	150	 156.0	 50.0	 123.0	 -23.0	 1.0	 253.8	 1	 222.0	 90.0;
	151	 156.0	 50.5	 149.0	 -48.0	 1.0	 267.4	 1	 222.0	 90.0;
	151	 0.0	 0.0	 123.0	 -23.0	 1.0	 253.8	 0	 222.0	 90.0;
	155	 164.5	 48.0	 149.0	 -53.0	 1.03	 278.3	 1	 235.0	 94.0;
	155	 0.0	 0.0	 149.0	 -53.0	 1.03	 278.3	 0	 235.0	 94.0;
	155	 0.0	 0.0	 120.0	 0.0	 1.03	 287.3	 0	 261.0	 104.0;
	155	 0.0	 0.0	 132.0	 -40.0	 1.03	 292.5	 0	 261.0	 104.0;
	156	 0.0	 0.0	 120.0	 0.0	 1.03	 287.3	 0	 261.0	 104.0;
	156	 167.5	 47.5	 117.0	 -22.0	 1.03	 236.0	 1	 205.0	 130.0;
	156	 163.0	 44.5	 109.0	 -20.0	 1.03	 233.1	 1	 206.0	 120.0;
	156	 0.0	 0.0	 109.0	 -20.0	 1.03	 233.1	 0	 206.0	 120.0;
	158	 163.0	 44.5	 109.0	 -20.0	 1.0	 233.1	 1	 206.0	 120.0;
	164	 0.0	 0.0	 104.0	 -23.0	 1.03	 225.4	 0	 200.0	 150.0;
	164	 175.0	 40.5	 104.0	 -23.0	 1.03	 225.4	 1	 200.0	 150.0;
	165	 175.0	 40.5	 104.0	 -23.0	 1.03	 225.4	 1	 200.0	 150.0;
	165	 0.0	 0.0	 104.0	 -23.0	 1.03	 225.4	 0	 200.0	 150.0;
	180	 120.0	 55.0	 110.0	 0.0	 1.03	 219.5	 1	 120.0	 120.0;
	205	 0.0	 24.9995	 80.0	 -30.001	 1.0	 196.1	 1	 0.0	 0.0;
	205	 0.0	 24.9995	 80.0	 -30.001	 1.0	 196.1	 1	 0.0	 0.0;
	205	 0.0	 0.0	 110.0	 -60.0	 1.0	 210.1	 0	 0.0	 0.0;
	206	 0.0	 0.0	 110.0	 -60.0	 1.0	 210.1	 0	 0.0	 0.0;
	215	 23.0	 10.0	 20.0	 0.0	 1.035	 58.5	 1	 23.0	 23.0;
	215	 0.0	 0.0	 20.0	 0.0	 1.035	 53.9	 0	 0.0	 0.0;
	215	 0.0	 0.0	 20.0	 0.0	 1.035	 53.9	 0	 0.0	 0.0;
	215	 7.0	 10.0	 20.0	 0.0	 1.035	 30.5	 1	 7.0	 7.0;
	221	 1.55	 0.5	 1.0	 0.0	 1.035	 2.3	 1	 1.55	 1.55;
	222	 1.55	 0.5	 1.0	 0.0	 1.035	 2.3	 1	 1.55	 1.55;
	240	 6.3	 3.0	 6.0	 0.0	 1.035	 9.8	 1	 6.3	 6.3;
	247	 330.0	 85.5	 190.0	 -19.0	 1.035	 415.9	 1	 370.0	 290.0;
	310	 0.0	 0.0	 7.0	 0.0	 1.035	 27.9	 0	 0.0	 0.0;
	310	 0.0	 0.0	 7.0	 0.0	 1.035	 27.9	 0	 0.0	 0.0;
	310	 11.0	 5.5	 7.0	 4.0	 1.035	 30.8	 1	 11.0	 11.0;
	310	 0.0	 0.0	 7.0	 0.0	 1.035	 27.9	 0	 0.0	 0.0;
	310	 0.0	 0.0	 6.0	 0.0	 1.035	 27.7	 0	 0.0	 0.0;
	310	 0.0	 0.0	 7.0	 0.0	 1.035	 27.9	 0	 0.0	 0.0;
	310	 0.0	 0.0	 7.0	 0.0	 1.035	 27.9	 0	 0.0	 0.0;
	311	 0.0	 0.0	 15.0	 0.0	 1.035	 36.7	 0	 0.0	 0.0;
	311	 0.0	 0.0	 15.0	 0.0	 1.035	 57.0	 0	 0.0	 0.0;
	312	 16.0	 7.5	 15.0	 0.0	 1.035	 36.7	 1	 16.0	 16.0;
	312	 0.0	 0.0	 15.0	 0.0	 1.035	 57.0	 0	 0.0	 0.0;
	314	 25.0	 10.0	 20.0	 0.0	 1.035	 53.9	 1	 25.0	 25.0;
	314	 0.0	 0.0	 20.0	 0.0	 1.035	 53.9	 0	 0.0	 0.0;
	315	 0.0	 0.0	 40.0	 0.0	 1.035	 107.7	 0	 0.0	 0.0;
	323	 2.5	 1.5	 3.0	 0.0	 1.035	 4.1	 1	 2.5	 2.5;
	366	 40.0	 6.0	 12.0	 0.0	 1.035	 47.8	 1	 40.0	 40.0;
	367	 40.0	 6.0	 12.0	 0.0	 1.035	 47.8	 1	 40.0	 40.0;
	368	 40.0	 6.0	 12.0	 0.0	 1.035	 47.8	 1	 40.0	 40.0;
	369	 40.0	 6.0	 12.0	 0.0	 1.035	 47.8	 1	 40.0	 40.0;
	386	 175.0	 45.5	 138.0	 -47.0	 1.035	 251.3	 1	 210.0	 140.0;
	386	 0.0	 0.0	 10.0	 0.0	 1.035	 26.9	 0	 25.0	 12.0;
	387	 13.5	 5.0	 10.0	 0.0	 1.035	 19.7	 1	 17.0	 10.0;
	444	 1.5	 1.0	 2.0	 0.0	 1.035	 3.6	 1	 1.5	 1.5;
	453	 5.21	 1.0	 2.0	 0.0	 1.035	 6.1	 1	 5.21	 5.21;
	453	 0.0	 0.0	 2.0	 0.0	 1.035	 6.1	 0	 0.0	 0.0;
	486	 1.4	 0.35	 0.7	 0.0	 1.035	 1.7	 1	 1.4	 1.4;
	537	 25.0	 7.0	 14.0	 0.0	 1.035	 53.9	 1	 25.0	 25.0;
	537	 0.0	 0.0	 14.0	 0.0	 1.035	 34.9	 0	 0.0	 0.0;
	537	 0.0	 0.0	 14.0	 0.0	 1.035	 34.0	 0	 0.0	 0.0;
	537	 0.0	 0.0	 14.0	 0.0	 1.035	 105.9	 0	 0.0	 0.0;
	537	 0.0	 0.0	 14.0	 0.0	 1.035	 105.9	 0	 0.0	 0.0;
	538	 20.0	 8.75	 17.5	 0.0	 1.035	 36.5	 1	 20.0	 20.0;
	538	 20.0	 8.75	 17.5	 0.0	 1.035	 35.6	 1	 20.0	 20.0;
	538	 0.0	 0.0	 17.5	 0.0	 1.035	 126.2	 0	 0.0	 0.0;
	538	 0.0	 0.0	 17.5	 0.0	 1.035	 106.4	 0	 0.0	 0.0;
	552	 1.4	 0.35	 0.7	 0.0	 1.035	 1.7	 1	 1.4	 1.4;
	560	 22.5	 5.0	 10.0	 0.0	 1.035	 35.4	 1	 22.5	 22.5;
	560	 0.0	 0.0	 5.0	 0.0	 1.035	 28.4	 0	 0.0	 0.0;
	560	 0.0	 0.0	 5.0	 0.0	 1.035	 26.5	 0	 0.0	 0.0;
	560	 0.0	 0.0	 5.0	 0.0	 1.035	 30.4	 0	 0.0	 0.0;
	560	 0.0	 0.0	 5.0	 0.0	 1.035	 34.4	 0	 0.0	 0.0;
	561	 22.5	 5.0	 10.0	 0.0	 1.035	 35.4	 1	 22.5	 22.5;
	561	 0.0	 0.0	 5.0	 0.0	 1.035	 34.4	 0	 0.0	 0.0;
	561	 0.0	 0.0	 5.0	 0.0	 1.035	 26.5	 0	 0.0	 0.0;
	561	 0.0	 0.0	 5.0	 0.0	 1.035	 34.4	 0	 0.0	 0.0;
	574	 1.0	 2.0	 4.0	 0.0	 1.035	 8.9	 1	 1.0	 1.0;
	627	 76.0	 15.0	 30.0	 0.0	 1.035	 97.7	 1	 76.0	 76.0;
	627	 30.0	 15.0	 30.0	 0.0	 1.035	 46.8	 1	 30.0	 30.0;
	665	 177.5	 55.5	 145.0	 -34.0	 1.035	 267.7	 1	 225.0	 130.0;
	666	 0.0	 0.0	 145.0	 -34.0	 1.035	 267.7	 0	 225.0	 130.0;
	686	 140.0	 15.0	 30.0	 0.0	 1.035	 182.5	 1	 140.0	 140.0;
	686	 47.0	 15.0	 30.0	 0.0	 1.035	 77.5	 1	 47.0	 47.0;
	692	 1.98	 0.5	 1.0	 0.0	 1.035	 2.7	 1	 1.98	 1.98;
	717	 1.32	 0.65	 1.3	 0.0	 1.035	 10.1	 1	 1.32	 1.32;
	741	 177.0	 57.0	 130.0	 -16.0	 1.035	 259.9	 1	 225.0	 129.0;
	764	 82.0	 15.0	 30.0	 0.0	 1.035	 105.4	 1	 82.0	 82.0;
	793	 1.0	 0.25	 0.5	 0.0	 1.035	 8.3	 1	 1.0	 1.0;
	797	 0.0	 0.0	 23.0	 0.0	 1.035	 71.9	 0	 0.0	 0.0;
	797	 0.0	 0.0	 23.0	 0.0	 1.035	 71.9	 0	 0.0	 0.0;
	797	 0.0	 0.0	 11.0	 0.0	 1.035	 32.9	 0	 0.0	 0.0;
	797	 0.0	 0.0	 10.0	 0.0	 1.035	 32.6	 0	 0.0	 0.0;
	808	 0.0	 0.0	 10.0	 0.0	 1.035	 125.4	 0	 125.0	 84.0;
	809	 108.5	 5.0	 10.0	 0.0	 1.035	 125.4	 1	 125.0	 92.0;
	846	 14.996	 4.05	 8.1	 0.0	 1.035	 33.0	 1	 14.996	 14.996;
	846	 14.996	 4.05	 8.1	 0.0	 1.035	 33.0	 1	 14.996	 14.996;
	846	 0.0	 0.0	 0.0	 0.0	 1.035	 19.0	 0	 0.0	 0.0;
	846	 0.0	 0.0	 0.0	 0.0	 1.035	 19.0	 0	 0.0	 0.0;
	878	 34.99	 20.6	 41.2	 0.0	 1.035	 87.7	 1	 34.99	 34.99;
	901	 0.0	 0.0	 45.0	 -10.0	 1.035	 65.8	 0	 0.0	 0.0;
	901	 44.988	 17.5	 45.0	 -10.0	 1.035	 71.1	 1	 44.988	 44.988;
	901	 0.0	 0.0	 45.0	 -10.0	 1.035	 71.1	 0	 0.0	 0.0;
	976	 0.0	 0.0	 110.0	 -40.0	 1.035	 162.2	 0	 0.0	 0.0;
	977	 99.973	 35.0	 110.0	 -40.0	 1.035	 162.2	 1	 99.973	 99.973;
	981	 0.0	 0.0	 0.0	 0.0	 1.035	 16.8	 0	 0.0	 0.0;
	1002	 303.0	 104.0	 240.0	 -32.0	 1.035	 454.5	 1	 386.0	 220.0;
	1003	 0.0	 0.0	 227.0	 -30.0	 1.035	 434.1	 0	 370.0	 220.0;
	1007	 5.998	 0.7235	 1.447	 0.0	 1.035	 7.1	 1	 5.998	 5.998;
	1006	 3.999	 0.2235	 0.447	 0.0	 1.035	 4.0	 1	 3.999	 3.999;
	1007	 3.999	 0.2235	 0.447	 0.0	 1.035	 5.0	 1	 3.999	 3.999;
	1007	 0.0	 0.0	 0.0	 0.0	 1.035	 6.0	 0	 0.0	 0.0;
	1008	 0.0	 0.0	 110.0	 -40.0	 1.035	 174.1	 0	 0.0	 0.0;
	1014	 14.996	 2.4	 4.8	 0.0	 1.035	 20.6	 1	 14.996	 14.996;
	1014	 0.0	 0.0	 0.0	 0.0	 1.035	 12.8	 0	 0.0	 0.0;
	1014	 0.0	 0.0	 0.0	 0.0	 1.035	 12.5	 0	 0.0	 0.0;
	1016	 0.0	 0.0	 0.0	 0.0	 1.035	 20.0	 0	 0.0	 0.0;
	1016	 0.0	 0.0	 0.0	 0.0	 1.035	 19.0	 0	 0.0	 0.0;
	1025	 11.997	 13.5	 18.0	 9.0	 1.035	 30.0	 1	 11.997	 11.997;
	1026	 0.0	 0.0	 18.0	 9.0	 1.035	 30.0	 0	 0.0	 0.0;
	1027	 0.0	 0.0	 14.0	 10.5	 1.035	 32.2	 0	 0.0	 0.0;
	1114	 0.0	 0.0	 37.5	 16.8	 1.035	 62.5	 0	 0.0	 0.0;
	1115	 0.0	 0.0	 37.5	 7.5	 1.035	 62.5	 0	 0.0	 0.0;
	1114	 39.989	 22.5	 37.5	 7.5	 1.035	 62.5	 1	 39.989	 39.989;
	1116	 0.0	 0.0	 37.5	 16.8	 1.035	 62.5	 0	 0.0	 0.0;
	1153	 16.995	 2.6255	 5.251	 0.0	 1.035	 30.5	 1	 16.995	 16.995;
	1153	 0.0	 0.0	 0.0	 0.0	 1.035	 6.0	 0	 0.0	 0.0;
	1154	 16.995	 2.6255	 5.251	 0.0	 1.035	 30.5	 1	 16.995	 16.995;
	1154	 0.0	 0.0	 0.0	 0.0	 1.035	 25.0	 0	 0.0	 0.0;
	1155	 15.996	 2.625	 5.25	 0.0	 1.035	 30.5	 1	 15.996	 15.996;
	1155	 0.0	 0.0	 0.0	 0.0	 1.035	 6.0	 0	 0.0	 0.0;
	1180	 59.984	 26.25	 52.5	 0.0	 1.035	 87.5	 1	 59.984	 59.984;
	1181	 0.0	 0.0	 52.5	 0.0	 1.035	 87.5	 0	 0.0	 0.0;
	1181	 0.0	 0.0	 42.0	 16.8	 1.035	 65.3	 0	 0.0	 0.0;
	1189	 49.986	 0.0	 0.0	 0.0	 1.035	 50.0	 1	 49.986	 49.986;
	1247	 9.997	 1.0	 2.0	 0.0	 1.035	 16.7	 1	 9.997	 9.997;
	1247	 0.0	 0.0	 0.0	 0.0	 1.035	 24.0	 0	 0.0	 0.0;
	1248	 0.0	 0.0	 0.0	 0.0	 1.035	 14.6	 0	 0.0	 0.0;
	1248	 0.0	 0.0	 0.0	 0.0	 1.035	 14.6	 0	 0.0	 0.0;
...
];

%% generator cost data
%	2	startup	shutdown	n	c(n-1)	...	c0
mpc.gencost = [
2	0.0	0.0	3	0.2	112.780000	0.000000;
2	0.0	0.0	3	0.2	112.780000	0.000000;
2	0.0	0.0	3	0.2	76.100000	0.000000;
2	0.0	0.0	3	0.2	76.100000	0.000000;
2	0.0	0.0	3	0.2	76.100000	0.000000;
2	0.0	0.0	3	0.2	76.100000	0.000000;
2	0.0	0.0	3	0.2	76.100000	0.000000;
2	0.0	0.0	3	0.2	76.100000	0.000000;
2	0.0	0.0	3	0.2	76.100000	0.000000;
2	0.0	0.0	3	0.2	76.100000	0.000000;
2	0.0	0.0	3	0.2	76.100000	0.000000;
2	0.0	0.0	3	0.2	76.100000	0.000000;
2	0.0	0.0	3	0.2	76.100000	0.000000;
2	0.0	0.0	3	0.2	102.050000	0.000000;
2	0.0	0.0	3	0.2	102.050000	0.000000;
2	0.0	0.0	3	0.2	102.050000	0.000000;
2	0.0	0.0	3	0.2	102.050000	0.000000;
2	0.0	0.0	3	0.2	102.050000	0.000000;
2	0.0	0.0	3	0.2	102.050000	0.000000;
2	0.0	0.0	3	0.2	102.050000	0.000000;
2	0.0	0.0	3	0.2	102.050000	0.000000;
2	0.0	0.0	3	0.2	105.350000	0.000000;
2	0.0	0.0	3	0.2	105.350000	0.000000;
2	0.0	0.0	3	0.2	105.350000	0.000000;
2	0.0	0.0	3	0.2	105.350000	0.000000;
2	0.0	0.0	3	0.2	105.350000	0.000000;
2	0.0	0.0	3	0.2	105.350000	0.000000;
2	0.0	0.0	3	0.2	105.350000	0.000000;
	2	 0.0	 0.0	 3	   0.000000	   0.000000	   0.000000;
2	0.0	0.0	3	0.2	95.310000	0.000000;
2	0.0	0.0	3	0.2	95.310000	0.000000;
2	0.0	0.0	3	0.2	95.310000	0.000000;
2	0.0	0.0	3	0.2	95.310000	0.000000;
2	0.0	0.0	3	0.2	95.310000	0.000000;
2	0.0	0.0	3	0.2	90.030000	0.000000;
2	0.0	0.0	3	0.2	90.030000	0.000000;
	2	 0.0	 0.0	 3	   0.000000	   0.000000	   0.000000;
	2	 0.0	 0.0	 3	   0.000000	   0.000000	   0.000000;
2	0.0	0.0	3	0.2	92.780000	0.000000;
2	0.0	0.0	3	0.2	92.780000	0.000000;
2	0.0	0.0	3	0.2	94.090000	0.000000;
2	0.0	0.0	3	0.2	94.090000	0.000000;
2	0.0	0.0	3	0.2	97.120000	0.000000;
2	0.0	0.0	3	0.2	97.120000	0.000000;
2	0.0	0.0	3	0.2	99.520000	0.000000;
2	0.0	0.0	3	0.2	91.160000	0.000000;
2	0.0	0.0	3	0.2	91.160000	0.000000;
2	0.0	0.0	3	0.2	91.160000	0.000000;
2	0.0	0.0	3	0.2	91.160000	0.000000;
2	0.0	0.0	3	0.2	91.160000	0.000000;
2	0.0	0.0	3	0.2	0.010000	0.000000;
2	0.0	0.0	3	0.2	0.010000	0.000000;
2	0.0	0.0	3	0.2	0.010000	0.000000;
2	0.0	0.0	3	0.2	0.010000	0.000000;
2	0.0	0.0	3	0.2	92.430000	0.000000;
2	0.0	0.0	3	0.2	92.430000	0.000000;
2	0.0	0.0	3	0.2	92.430000	0.000000;
2	0.0	0.0	3	0.2	96.420000	0.000000;
2	0.0	0.0	3	0.2	96.420000	0.000000;
2	0.0	0.0	3	0.2	96.420000	0.000000;
2	0.0	0.0	3	0.2	116.010000	0.000000;
2	0.0	0.0	3	0.2	116.010000	0.000000;
2	0.0	0.0	3	0.2	116.010000	0.000000;
2	0.0	0.0	3	0.2	116.010000	0.000000;
2	0.0	0.0	3	0.2	116.010000	0.000000;
2	0.0	0.0	3	0.2	116.010000	0.000000;
2	0.0	0.0	3	0.2	116.010000	0.000000;
2	0.0	0.0	3	0.2	98.840000	0.000000;
2	0.0	0.0	3	0.2	98.840000	0.000000;
2	0.0	0.0	3	0.2	98.840000	0.000000;
2	0.0	0.0	3	0.2	98.840000	0.000000;
2	0.0	0.0	3	0.2	98.840000	0.000000;
2	0.0	0.0	3	0.2	98.840000	0.000000;
2	0.0	0.0	3	0.2	98.840000	0.000000;
2	0.0	0.0	3	0.2	98.840000	0.000000;
2	0.0	0.0	3	0.2	98.840000	0.000000;
2	0.0	0.0	3	0.2	89.220000	0.000000;
2	0.0	0.0	3	0.2	89.220000	0.000000;
2	0.0	0.0	3	0.2	89.220000	0.000000;
2	0.0	0.0	3	0.2	89.220000	0.000000;
	2	 0.0	 0.0	 3	   0.000000	   0.000000	   0.000000;
2	0.0	0.0	3	0.2	0.010000	0.000000;
2	0.0	0.0	3	0.2	0.010000	0.000000;
2	0.0	0.0	3	0.2	0.010000	0.000000;
2	0.0	0.0	3	0.2	0.010000	0.000000;
	2	 0.0	 0.0	 3	   0.000000	   0.000000	   0.000000;
	2	 0.0	 0.0	 3	   0.000000	   0.000000	   0.000000;
	2	 0.0	 0.0	 3	   0.000000	   0.000000	   0.000000;
	2	 0.0	 0.0	 3	   0.000000	   0.000000	   0.000000;
	2	 0.0	 0.0	 3	   0.000000	   0.000000	   0.000000;
	2	 0.0	 0.0	 3	   0.000000	   0.000000	   0.000000;
	2	 0.0	 0.0	 3	   0.000000	   0.000000	   0.000000;
2	0.0	0.0	3	0.2	76.100000	0.000000;
	2	 0.0	 0.0	 3	   0.000000	   0.000000	   0.000000;
	2	 0.0	 0.0	 3	   0.000000	   0.000000	   0.000000;
	2	 0.0	 0.0	 3	   0.000000	   0.000000	   0.000000;
	2	 0.0	 0.0	 3	   0.000000	   0.000000	   0.000000;
	2	 0.0	 0.0	 3	   0.000000	   0.000000	   0.000000;
	2	 0.0	 0.0	 3	   0.000000	   0.000000	   0.000000;
	2	 0.0	 0.0	 3	   0.000000	   0.000000	   0.000000;
	2	 0.0	 0.0	 3	   0.000000	   0.000000	   0.000000;
	2	 0.0	 0.0	 3	   0.000000	   0.000000	   0.000000;
	2	 0.0	 0.0	 3	   0.000000	   0.000000	   0.000000;
	2	 0.0	 0.0	 3	   0.000000	   0.000000	   0.000000;
	2	 0.0	 0.0	 3	   0.000000	   0.000000	   0.000000;
	2	 0.0	 0.0	 3	   0.000000	   0.000000	   0.000000;
	2	 0.0	 0.0	 3	   0.000000	   0.000000	   0.000000;
	2	 0.0	 0.0	 3	   0.000000	   0.000000	   0.000000;
	2	 0.0	 0.0	 3	   0.000000	   0.000000	   0.000000;
	2	 0.0	 0.0	 3	   0.000000	   0.000000	   0.000000;
	2	 0.0	 0.0	 3	   0.000000	   0.000000	   0.000000;
	2	 0.0	 0.0	 3	   0.000000	   0.000000	   0.000000;
2	0.0	0.0	3	0.2	112.780000	0.000000;
2	0.0	0.0	3	0.2	112.780000	0.000000;
2	0.0	0.0	3	0.2	112.780000	0.000000;
	2	 0.0	 0.0	 3	   0.000000	   0.000000	   0.000000;
	2	 0.0	 0.0	 3	   0.000000	   0.000000	   0.000000;
	2	 0.0	 0.0	 3	   0.000000	   0.000000	   0.000000;
	2	 0.0	 0.0	 3	   0.000000	   0.000000	   0.000000;
	2	 0.0	 0.0	 3	   0.000000	   0.000000	   0.000000;
	2	 0.0	 0.0	 3	   0.000000	   0.000000	   0.000000;
	2	 0.0	 0.0	 3	   0.000000	   0.000000	   0.000000;
	2	 0.0	 0.0	 3	   0.000000	   0.000000	   0.000000;
	2	 0.0	 0.0	 3	   0.000000	   0.000000	   0.000000;
	2	 0.0	 0.0	 3	   0.000000	   0.000000	   0.000000;
	2	 0.0	 0.0	 3	   0.000000	   0.000000	   0.000000;
	2	 0.0	 0.0	 3	   0.000000	   0.000000	   0.000000;
	2	 0.0	 0.0	 3	   0.000000	   0.000000	   0.000000;
	2	 0.0	 0.0	 3	   0.000000	   0.000000	   0.000000;
	2	 0.0	 0.0	 3	   0.000000	   0.000000	   0.000000;
	2	 0.0	 0.0	 3	   0.000000	   0.000000	   0.000000;
	2	 0.0	 0.0	 3	   0.000000	   0.000000	   0.000000;
	2	 0.0	 0.0	 3	   0.000000	   0.000000	   0.000000;
	2	 0.0	 0.0	 3	   0.000000	   0.000000	   0.000000;
	2	 0.0	 0.0	 3	   0.000000	   0.000000	   0.000000;
	2	 0.0	 0.0	 3	   0.000000	   0.000000	   0.000000;
	2	 0.0	 0.0	 3	   0.000000	   0.000000	   0.000000;
	2	 0.0	 0.0	 3	   0.000000	   0.000000	   0.000000;
	2	 0.0	 0.0	 3	   0.000000	   0.000000	   0.000000;
	2	 0.0	 0.0	 3	   0.000000	   0.000000	   0.000000;
	2	 0.0	 0.0	 3	   0.000000	   0.000000	   0.000000;
2	0.0	0.0	3	0.2	102.050000	0.000000;
2	0.0	0.0	3	0.2	102.050000	0.000000;
	2	 0.0	 0.0	 3	   0.000000	   0.000000	   0.000000;
	2	 0.0	 0.0	 3	   0.000000	   0.000000	   0.000000;
	2	 0.0	 0.0	 3	   0.000000	   0.000000	   0.000000;
	2	 0.0	 0.0	 3	   0.000000	   0.000000	   0.000000;
2	0.0	0.0	3	0.2	105.350000	0.000000;
	2	 0.0	 0.0	 3	   0.000000	   0.000000	   0.000000;
	2	 0.0	 0.0	 3	   0.000000	   0.000000	   0.000000;
2	0.0	0.0	3	0.2	0.010000	0.000000;
2	0.0	0.0	3	0.2	0.010000	0.000000;
2	0.0	0.0	3	0.2	0.010000	0.000000;
2	0.0	0.0	3	0.2	0.010000	0.000000;
2	0.0	0.0	3	0.2	111.630000	0.000000;
2	0.0	0.0	3	0.2	111.630000	0.000000;
	2	 0.0	 0.0	 3	   0.000000	   0.000000	   0.000000;
	2	 0.0	 0.0	 3	   0.000000	   0.000000	   0.000000;
	2	 0.0	 0.0	 3	   0.000000	   0.000000	   0.000000;
	2	 0.0	 0.0	 3	   0.000000	   0.000000	   0.000000;
	2	 0.0	 0.0	 3	   0.000000	   0.000000	   0.000000;
	2	 0.0	 0.0	 3	   0.000000	   0.000000	   0.000000;
	2	 0.0	 0.0	 3	   0.000000	   0.000000	   0.000000;
	2	 0.0	 0.0	 3	   0.000000	   0.000000	   0.000000;
	2	 0.0	 0.0	 3	   0.000000	   0.000000	   0.000000;
	2	 0.0	 0.0	 3	   0.000000	   0.000000	   0.000000;
	2	 0.0	 0.0	 3	   0.000000	   0.000000	   0.000000;
2	0.0	0.0	3	0.2	90.030000	0.000000;
2	0.0	0.0	3	0.2	90.030000	0.000000;
	2	 0.0	 0.0	 3	   0.000000	   0.000000	   0.000000;
	2	 0.0	 0.0	 3	   0.000000	   0.000000	   0.000000;
	2	 0.0	 0.0	 3	   0.000000	   0.000000	   0.000000;
	2	 0.0	 0.0	 3	   0.000000	   0.000000	   0.000000;
	2	 0.0	 0.0	 3	   0.000000	   0.000000	   0.000000;
	2	 0.0	 0.0	 3	   0.000000	   0.000000	   0.000000;
	2	 0.0	 0.0	 3	   0.000000	   0.000000	   0.000000;
	2	 0.0	 0.0	 3	   0.000000	   0.000000	   0.000000;
	2	 0.0	 0.0	 3	   0.000000	   0.000000	   0.000000;
	2	 0.0	 0.0	 3	   0.000000	   0.000000	   0.000000;
	2	 0.0	 0.0	 3	   0.000000	   0.000000	   0.000000;
	2	 0.0	 0.0	 3	   0.000000	   0.000000	   0.000000;
	2	 0.0	 0.0	 3	   0.000000	   0.000000	   0.000000;
	2	 0.0	 0.0	 3	   0.000000	   0.000000	   0.000000;
	2	 0.0	 0.0	 3	   0.000000	   0.000000	   0.000000;
	2	 0.0	 0.0	 3	   0.000000	   0.000000	   0.000000;
	2	 0.0	 0.0	 3	   0.000000	   0.000000	   0.000000;
	2	 0.0	 0.0	 3	   0.000000	   0.000000	   0.000000;
	2	 0.0	 0.0	 3	   0.000000	   0.000000	   0.000000;
	2	 0.0	 0.0	 3	   0.000000	   0.000000	   0.000000;
	2	 0.0	 0.0	 3	   0.000000	   0.000000	   0.000000;
	2	 0.0	 0.0	 3	   0.000000	   0.000000	   0.000000;
	2	 0.0	 0.0	 3	   0.000000	   0.000000	   0.000000;
	2	 0.0	 0.0	 3	   0.000000	   0.000000	   0.000000;
	2	 0.0	 0.0	 3	   0.000000	   0.000000	   0.000000;
	2	 0.0	 0.0	 3	   0.000000	   0.000000	   0.000000;
	2	 0.0	 0.0	 3	   0.000000	   0.000000	   0.000000;
	2	 0.0	 0.0	 3	   0.000000	   0.000000	   0.000000;
	2	 0.0	 0.0	 3	   0.000000	   0.000000	   0.000000;
	2	 0.0	 0.0	 3	   0.000000	   0.000000	   0.000000;
	2	 0.0	 0.0	 3	   0.000000	   0.000000	   0.000000;
...
];

%% storage data
%	bus	energy	energy_rating	charge_rating	discharge_rating	thermal_rating	qmin	qmax	r	x	standby_loss	status
mpc.storage = [
	205	0.0	0.0	1.00	600.0000	300.0000	216.0000	0.9	0.85	1000	-1000	1000	0.1	0.01	0	0	1;
	2725	0.0	0.0	1.00	432.7170	216.3585	155.7781	0.9	0.85	1000	-1000	1000	0.1	0.01	0	0	1;
	2730	0.0	0.0	1.00	352.6275	176.3137	126.9459	0.9	0.85	1000	-1000	1000	0.1	0.01	0	0	1;
	2724	0.0	0.0	1.00	282.7950	141.3975	101.8062	0.9	0.85	1000	-1000	1000	0.1	0.01	0	0	1;
	2726	0.0	0.0	1.00	275.2500	137.6250	99.0900	0.9	0.85	1000	-1000	1000	0.1	0.01	0	0	1;
	132	0.0	0.0	1.00	205.5000	102.7500	73.9800	0.9	0.85	1000	-1000	1000	0.1	0.01	0	0	1;
	133	0.0	0.0	1.00	205.5000	102.7500	73.9800	0.9	0.85	1000	-1000	1000	0.1	0.01	0	0	1;
	2555	0.0	0.0	1.00	187.0500	93.5250	67.3380	0.9	0.85	1000	-1000	1000	0.1	0.01	0	0	1;
	2042	0.0	0.0	1.00	132.8025	66.4013	47.8089	0.9	0.85	1000	-1000	1000	0.1	0.01	0	0	1;
	2676	0.0	0.0	1.00	124.5000	62.2500	44.8200	0.9	0.85	1000	-1000	1000	0.1	0.01	0	0	1;
	58	0.0	0.0	1.00	101.8230	50.9115	36.6563	0.9	0.85	1000	-1000	1000	0.1	0.01	0	0	1;
	734	0.0	0.0	1.00	101.8230	50.9115	36.6563	0.9	0.85	1000	-1000	1000	0.1	0.01	0	0	1;
	2737	0.0	0.0	1.00	97.5000	48.7500	35.1000	0.9	0.85	1000	-1000	1000	0.1	0.01	0	0	1;
	1188	0.0	0.0	1.00	95.3925	47.6962	34.3413	0.9	0.85	1000	-1000	1000	0.1	0.01	0	0	1;
	1189	0.0	0.0	1.00	90.3555	45.1778	32.5280	0.9	0.85	1000	-1000	1000	0.1	0.01	0	0	1;
	1138	0.0	0.0	1.00	89.1165	44.5583	32.0819	0.9	0.85	1000	-1000	1000	0.1	0.01	0	0	1;
	2713	0.0	0.0	1.00	74.7000	37.3500	26.8920	0.9	0.85	1000	-1000	1000	0.1	0.01	0	0	1;
	26	0.0	0.0	1.00	72.2670	36.1335	26.0161	0.9	0.85	1000	-1000	1000	0.1	0.01	0	0	1;
	509	0.0	0.0	1.00	67.6185	33.8092	24.3427	0.9	0.85	1000	-1000	1000	0.1	0.01	0	0	1;
	29	0.0	0.0	1.00	67.0470	33.5235	24.1369	0.9	0.85	1000	-1000	1000	0.1	0.01	0	0	1;
	1248	0.0	0.0	1.00	62.6310	31.3155	22.5472	0.9	0.85	1000	-1000	1000	0.1	0.01	0	0	1;
	285	0.0	0.0	1.00	60.8580	30.4290	21.9089	0.9	0.85	1000	-1000	1000	0.1	0.01	0	0	1;
	366	0.0	0.0	1.00	60.8580	30.4290	21.9089	0.9	0.85	1000	-1000	1000	0.1	0.01	0	0	1;
	367	0.0	0.0	1.00	60.8580	30.4290	21.9089	0.9	0.85	1000	-1000	1000	0.1	0.01	0	0	1;
	368	0.0	0.0	1.00	60.8580	30.4290	21.9089	0.9	0.85	1000	-1000	1000	0.1	0.01	0	0	1;
	369	0.0	0.0	1.00	60.8580	30.4290	21.9089	0.9	0.85	1000	-1000	1000	0.1	0.01	0	0	1;
	1140	0.0	0.0	1.00	59.7465	29.8733	21.5087	0.9	0.85	1000	-1000	1000	0.1	0.01	0	0	1;
	2281	0.0	0.0	1.00	52.7940	26.3970	19.0058	0.9	0.85	1000	-1000	1000	0.1	0.01	0	0	1;
	845	0.0	0.0	1.00	52.7190	26.3595	18.9788	0.9	0.85	1000	-1000	1000	0.1	0.01	0	0	1;
	2649	0.0	0.0	1.00	49.5000	24.7500	17.8200	0.9	0.85	1000	-1000	1000	0.1	0.01	0	0	1;
	2709	0.0	0.0	1.00	49.5000	24.7500	17.8200	0.9	0.85	1000	-1000	1000	0.1	0.01	0	0	1;
	2734	0.0	0.0	1.00	49.5000	24.7500	17.8200	0.9	0.85	1000	-1000	1000	0.1	0.01	0	0	1;
	86	0.0	0.0	1.00	49.4535	24.7268	17.8033	0.9	0.85	1000	-1000	1000	0.1	0.01	0	0	1;
	2714	0.0	0.0	1.00	48.0000	24.0000	17.2800	0.9	0.85	1000	-1000	1000	0.1	0.01	0	0	1;
	266	0.0	0.0	1.00	47.3325	23.6662	17.0397	0.9	0.85	1000	-1000	1000	0.1	0.01	0	0	1;
	731	0.0	0.0	1.00	45.8190	22.9095	16.4948	0.9	0.85	1000	-1000	1000	0.1	0.01	0	0	1;
	2421	0.0	0.0	1.00	45.0105	22.5053	16.2038	0.9	0.85	1000	-1000	1000	0.1	0.01	0	0	1;
	2530	0.0	0.0	1.00	43.5000	21.7500	15.6600	0.9	0.85	1000	-1000	1000	0.1	0.01	0	0	1;
	27	0.0	0.0	1.00	42.2175	21.1088	15.1983	0.9	0.85	1000	-1000	1000	0.1	0.01	0	0	1;
	108	0.0	0.0	1.00	41.4450	20.7225	14.9202	0.9	0.85	1000	-1000	1000	0.1	0.01	0	0	1;
	78	0.0	0.0	1.00	40.5000	20.2500	14.5800	0.9	0.85	1000	-1000	1000	0.1	0.01	0	0	1;
	2633	0.0	0.0	1.00	39.0000	19.5000	14.0400	0.9	0.85	1000	-1000	1000	0.1	0.01	0	0	1;
	718	0.0	0.0	1.00	38.1840	19.0920	13.7462	0.9	0.85	1000	-1000	1000	0.1	0.01	0	0	1;
	44	0.0	0.0	1.00	37.5000	18.7500	13.5000	0.9	0.85	1000	-1000	1000	0.1	0.01	0	0	1;
	2736	0.0	0.0	1.00	37.5000	18.7500	13.5000	0.9	0.85	1000	-1000	1000	0.1	0.01	0	0	1;
	267	0.0	0.0	1.00	36.5160	18.2580	13.1458	0.9	0.85	1000	-1000	1000	0.1	0.01	0	0	1;
	1015	0.0	0.0	1.00	36.3990	18.1995	13.1036	0.9	0.85	1000	-1000	1000	0.1	0.01	0	0	1;
	2015	0.0	0.0	1.00	36.2040	18.1020	13.0334	0.9	0.85	1000	-1000	1000	0.1	0.01	0	0	1;
	2647	0.0	0.0	1.00	36.0000	18.0000	12.9600	0.9	0.85	1000	-1000	1000	0.1	0.01	0	0	1;
	717	0.0	0.0	1.00	35.7630	17.8815	12.8747	0.9	0.85	1000	-1000	1000	0.1	0.01	0	0	1;
	759	0.0	0.0	1.00	35.6370	17.8185	12.8293	0.9	0.85	1000	-1000	1000	0.1	0.01	0	0	1;
	235	0.0	0.0	1.00	33.8100	16.9050	12.1716	0.9	0.85	1000	-1000	1000	0.1	0.01	0	0	1;
	508	0.0	0.0	1.00	33.8100	16.9050	12.1716	0.9	0.85	1000	-1000	1000	0.1	0.01	0	0	1;
	2038	0.0	0.0	1.00	33.6105	16.8053	12.0998	0.9	0.85	1000	-1000	1000	0.1	0.01	0	0	1;
	1002	0.0	0.0	1.00	33.2760	16.6380	11.9794	0.9	0.85	1000	-1000	1000	0.1	0.01	0	0	1;
	2119	0.0	0.0	1.00	32.3385	16.1693	11.6419	0.9	0.85	1000	-1000	1000	0.1	0.01	0	0	1;
	151	0.0	0.0	1.00	31.0080	15.5040	11.1629	0.9	0.85	1000	-1000	1000	0.1	0.01	0	0	1;
	809	0.0	0.0	1.00	30.2235	15.1118	10.8805	0.9	0.85	1000	-1000	1000	0.1	0.01	0	0	1;
	1794	0.0	0.0	1.00	30.1095	15.0548	10.8394	0.9	0.85	1000	-1000	1000	0.1	0.01	0	0	1;
	126	0.0	0.0	1.00	29.8470	14.9235	10.7449	0.9	0.85	1000	-1000	1000	0.1	0.01	0	0	1;
	265	0.0	0.0	1.00	29.7525	14.8763	10.7109	0.9	0.85	1000	-1000	1000	0.1	0.01	0	0	1;
	552	0.0	0.0	1.00	29.7525	14.8763	10.7109	0.9	0.85	1000	-1000	1000	0.1	0.01	0	0	1;
	405	0.0	0.0	1.00	29.3475	14.6738	10.5651	0.9	0.85	1000	-1000	1000	0.1	0.01	0	0	1;
	1158	0.0	0.0	1.00	29.1000	14.5500	10.4760	0.9	0.85	1000	-1000	1000	0.1	0.01	0	0	1;
	765	0.0	0.0	1.00	28.7445	14.3723	10.3480	0.9	0.85	1000	-1000	1000	0.1	0.01	0	0	1;
	2572	0.0	0.0	1.00	28.5000	14.2500	10.2600	0.9	0.85	1000	-1000	1000	0.1	0.01	0	0	1;
	2236	0.0	0.0	1.00	28.4595	14.2297	10.2454	0.9	0.85	1000	-1000	1000	0.1	0.01	0	0	1;
	528	0.0	0.0	1.00	28.3995	14.1997	10.2238	0.9	0.85	1000	-1000	1000	0.1	0.01	0	0	1;
	2108	0.0	0.0	1.00	27.8460	13.9230	10.0246	0.9	0.85	1000	-1000	1000	0.1	0.01	0	0	1;
	1343	0.0	0.0	1.00	27.0960	13.5480	9.7546	0.9	0.85	1000	-1000	1000	0.1	0.01	0	0	1;
	82	0.0	0.0	1.00	27.0000	13.5000	9.7200	0.9	0.85	1000	-1000	1000	0.1	0.01	0	0	1;
	1288	0.0	0.0	1.00	27.0000	13.5000	9.7200	0.9	0.85	1000	-1000	1000	0.1	0.01	0	0	1;
	1025	0.0	0.0	1.00	26.9925	13.4962	9.7173	0.9	0.85	1000	-1000	1000	0.1	0.01	0	0	1;
	1344	0.0	0.0	1.00	26.9715	13.4858	9.7097	0.9	0.85	1000	-1000	1000	0.1	0.01	0	0	1;
	406	0.0	0.0	1.00	26.7780	13.3890	9.6401	0.9	0.85	1000	-1000	1000	0.1	0.01	0	0	1;
	546	0.0	0.0	1.00	26.3715	13.1857	9.4937	0.9	0.85	1000	-1000	1000	0.1	0.01	0	0	1;
	109	0.0	0.0	1.00	26.2830	13.1415	9.4619	0.9	0.85	1000	-1000	1000	0.1	0.01	0	0	1;
	2054	0.0	0.0	1.00	25.9395	12.9697	9.3382	0.9	0.85	1000	-1000	1000	0.1	0.01	0	0	1;
	1155	0.0	0.0	1.00	25.6005	12.8003	9.2162	0.9	0.85	1000	-1000	1000	0.1	0.01	0	0	1;
	1153	0.0	0.0	1.00	25.5255	12.7628	9.1892	0.9	0.85	1000	-1000	1000	0.1	0.01	0	0	1;
	2732	0.0	0.0	1.00	25.5000	12.7500	9.1800	0.9	0.85	1000	-1000	1000	0.1	0.01	0	0	1;
	808	0.0	0.0	1.00	25.4550	12.7275	9.1638	0.9	0.85	1000	-1000	1000	0.1	0.01	0	0	1;
	1145	0.0	0.0	1.00	25.1025	12.5512	9.0369	0.9	0.85	1000	-1000	1000	0.1	0.01	0	0	1;
	99	0.0	0.0	1.00	24.9780	12.4890	8.9921	0.9	0.85	1000	-1000	1000	0.1	0.01	0	0	1;
	842	0.0	0.0	1.00	24.7260	12.3630	8.9014	0.9	0.85	1000	-1000	1000	0.1	0.01	0	0	1;
	2344	0.0	0.0	1.00	24.6240	12.3120	8.8646	0.9	0.85	1000	-1000	1000	0.1	0.01	0	0	1;
	1673	0.0	0.0	1.00	24.3825	12.1913	8.7777	0.9	0.85	1000	-1000	1000	0.1	0.01	0	0	1;
	284	0.0	0.0	1.00	24.3435	12.1717	8.7637	0.9	0.85	1000	-1000	1000	0.1	0.01	0	0	1;
	1070	0.0	0.0	1.00	24.0990	12.0495	8.6756	0.9	0.85	1000	-1000	1000	0.1	0.01	0	0	1;
	1247	0.0	0.0	1.00	24.0840	12.0420	8.6702	0.9	0.85	1000	-1000	1000	0.1	0.01	0	0	1;
	2608	0.0	0.0	1.00	24.0000	12.0000	8.6400	0.9	0.85	1000	-1000	1000	0.1	0.01	0	0	1;
	2735	0.0	0.0	1.00	24.0000	12.0000	8.6400	0.9	0.85	1000	-1000	1000	0.1	0.01	0	0	1;
	1777	0.0	0.0	1.00	23.8485	11.9242	8.5855	0.9	0.85	1000	-1000	1000	0.1	0.01	0	0	1;
	535	0.0	0.0	1.00	23.6670	11.8335	8.5201	0.9	0.85	1000	-1000	1000	0.1	0.01	0	0	1;
	2127	0.0	0.0	1.00	23.3400	11.6700	8.4024	0.9	0.85	1000	-1000	1000	0.1	0.01	0	0	1;
	135	0.0	0.0	1.00	22.8630	11.4315	8.2307	0.9	0.85	1000	-1000	1000	0.1	0.01	0	0	1;
	1071	0.0	0.0	1.00	22.5930	11.2965	8.1335	0.9	0.85	1000	-1000	1000	0.1	0.01	0	0	1;
	490	0.0	0.0	1.00	22.3140	11.1570	8.0330	0.9	0.85	1000	-1000	1000	0.1	0.01	0	0	1;
	1541	0.0	0.0	1.00	22.2510	11.1255	8.0104	0.9	0.85	1000	-1000	1000	0.1	0.01	0	0	1;
	1154	0.0	0.0	1.00	22.1595	11.0798	7.9774	0.9	0.85	1000	-1000	1000	0.1	0.01	0	0	1;
	550	0.0	0.0	1.00	21.6390	10.8195	7.7900	0.9	0.85	1000	-1000	1000	0.1	0.01	0	0	1;
	656	0.0	0.0	1.00	21.6375	10.8188	7.7895	0.9	0.85	1000	-1000	1000	0.1	0.01	0	0	1;
	737	0.0	0.0	1.00	21.6375	10.8188	7.7895	0.9	0.85	1000	-1000	1000	0.1	0.01	0	0	1;
	2040	0.0	0.0	1.00	21.3270	10.6635	7.6777	0.9	0.85	1000	-1000	1000	0.1	0.01	0	0	1;
	2002	0.0	0.0	1.00	21.1335	10.5668	7.6081	0.9	0.85	1000	-1000	1000	0.1	0.01	0	0	1;
	104	0.0	0.0	1.00	21.0000	10.5000	7.5600	0.9	0.85	1000	-1000	1000	0.1	0.01	0	0	1;
	1992	0.0	0.0	1.00	20.9685	10.4842	7.5487	0.9	0.85	1000	-1000	1000	0.1	0.01	0	0	1;
	1000	0.0	0.0	1.00	20.8350	10.4175	7.5006	0.9	0.85	1000	-1000	1000	0.1	0.01	0	0	1;
	156	0.0	0.0	1.00	20.8050	10.4025	7.4898	0.9	0.85	1000	-1000	1000	0.1	0.01	0	0	1;
	668	0.0	0.0	1.00	20.3640	10.1820	7.3310	0.9	0.85	1000	-1000	1000	0.1	0.01	0	0	1;
	1131	0.0	0.0	1.00	20.1480	10.0740	7.2533	0.9	0.85	1000	-1000	1000	0.1	0.01	0	0	1;
	1364	0.0	0.0	1.00	20.0820	10.0410	7.2295	0.9	0.85	1000	-1000	1000	0.1	0.01	0	0	1;
	2028	0.0	0.0	1.00	19.8285	9.9142	7.1383	0.9	0.85	1000	-1000	1000	0.1	0.01	0	0	1;
	42	0.0	0.0	1.00	19.5000	9.7500	7.0200	0.9	0.85	1000	-1000	1000	0.1	0.01	0	0	1;
	43	0.0	0.0	1.00	19.5000	9.7500	7.0200	0.9	0.85	1000	-1000	1000	0.1	0.01	0	0	1;
	55	0.0	0.0	1.00	19.5000	9.7500	7.0200	0.9	0.85	1000	-1000	1000	0.1	0.01	0	0	1;
	56	0.0	0.0	1.00	19.5000	9.7500	7.0200	0.9	0.85	1000	-1000	1000	0.1	0.01	0	0	1;
	57	0.0	0.0	1.00	19.5000	9.7500	7.0200	0.9	0.85	1000	-1000	1000	0.1	0.01	0	0	1;
	665	0.0	0.0	1.00	19.5000	9.7500	7.0200	0.9	0.85	1000	-1000	1000	0.1	0.01	0	0	1;
	741	0.0	0.0	1.00	19.5000	9.7500	7.0200	0.9	0.85	1000	-1000	1000	0.1	0.01	0	0	1;
	1837	0.0	0.0	1.00	19.5000	9.7500	7.0200	0.9	0.85	1000	-1000	1000	0.1	0.01	0	0	1;
	1839	0.0	0.0	1.00	19.5000	9.7500	7.0200	0.9	0.85	1000	-1000	1000	0.1	0.01	0	0	1;
	2496	0.0	0.0	1.00	19.5000	9.7500	7.0200	0.9	0.85	1000	-1000	1000	0.1	0.01	0	0	1;
	545	0.0	0.0	1.00	19.2045	9.6023	6.9136	0.9	0.85	1000	-1000	1000	0.1	0.01	0	0	1;
	2428	0.0	0.0	1.00	19.0590	9.5295	6.8612	0.9	0.85	1000	-1000	1000	0.1	0.01	0	0	1;
	1012	0.0	0.0	1.00	19.0095	9.5047	6.8434	0.9	0.85	1000	-1000	1000	0.1	0.01	0	0	1;
	503	0.0	0.0	1.00	18.9330	9.4665	6.8159	0.9	0.85	1000	-1000	1000	0.1	0.01	0	0	1;
	547	0.0	0.0	1.00	18.9330	9.4665	6.8159	0.9	0.85	1000	-1000	1000	0.1	0.01	0	0	1;
	2668	0.0	0.0	1.00	18.9000	9.4500	6.8040	0.9	0.85	1000	-1000	1000	0.1	0.01	0	0	1;
	976	0.0	0.0	1.00	18.8310	9.4155	6.7792	0.9	0.85	1000	-1000	1000	0.1	0.01	0	0	1;
	2237	0.0	0.0	1.00	18.6315	9.3157	6.7073	0.9	0.85	1000	-1000	1000	0.1	0.01	0	0	1;
	127	0.0	0.0	1.00	18.3000	9.1500	6.5880	0.9	0.85	1000	-1000	1000	0.1	0.01	0	0	1;
	720	0.0	0.0	1.00	18.1995	9.0998	6.5518	0.9	0.85	1000	-1000	1000	0.1	0.01	0	0	1;
	2098	0.0	0.0	1.00	18.0930	9.0465	6.5135	0.9	0.85	1000	-1000	1000	0.1	0.01	0	0	1;
	2099	0.0	0.0	1.00	18.0555	9.0278	6.5000	0.9	0.85	1000	-1000	1000	0.1	0.01	0	0	1;
	2650	0.0	0.0	1.00	18.0000	9.0000	6.4800	0.9	0.85	1000	-1000	1000	0.1	0.01	0	0	1;
	538	0.0	0.0	1.00	17.9415	8.9708	6.4589	0.9	0.85	1000	-1000	1000	0.1	0.01	0	0	1;
	164	0.0	0.0	1.00	17.4960	8.7480	6.2986	0.9	0.85	1000	-1000	1000	0.1	0.01	0	0	1;
	165	0.0	0.0	1.00	17.3460	8.6730	6.2446	0.9	0.85	1000	-1000	1000	0.1	0.01	0	0	1;
	537	0.0	0.0	1.00	17.3355	8.6677	6.2408	0.9	0.85	1000	-1000	1000	0.1	0.01	0	0	1;
	1435	0.0	0.0	1.00	17.3055	8.6528	6.2300	0.9	0.85	1000	-1000	1000	0.1	0.01	0	0	1;
	2699	0.0	0.0	1.00	17.2500	8.6250	6.2100	0.9	0.85	1000	-1000	1000	0.1	0.01	0	0	1;
	333	0.0	0.0	1.00	17.1765	8.5883	6.1835	0.9	0.85	1000	-1000	1000	0.1	0.01	0	0	1;
	561	0.0	0.0	1.00	16.9680	8.4840	6.1085	0.9	0.85	1000	-1000	1000	0.1	0.01	0	0	1;
	560	0.0	0.0	1.00	16.9665	8.4832	6.1079	0.9	0.85	1000	-1000	1000	0.1	0.01	0	0	1;
	497	0.0	0.0	1.00	16.9050	8.4525	6.0858	0.9	0.85	1000	-1000	1000	0.1	0.01	0	0	1;
	498	0.0	0.0	1.00	16.9050	8.4525	6.0858	0.9	0.85	1000	-1000	1000	0.1	0.01	0	0	1;
	1940	0.0	0.0	1.00	16.6380	8.3190	5.9897	0.9	0.85	1000	-1000	1000	0.1	0.01	0	0	1;
	1497	0.0	0.0	1.00	16.5675	8.2837	5.9643	0.9	0.85	1000	-1000	1000	0.1	0.01	0	0	1;
	803	0.0	0.0	1.00	16.5465	8.2733	5.9567	0.9	0.85	1000	-1000	1000	0.1	0.01	0	0	1;
	150	0.0	0.0	1.00	16.4835	8.2417	5.9341	0.9	0.85	1000	-1000	1000	0.1	0.01	0	0	1;
	2209	0.0	0.0	1.00	16.4535	8.2267	5.9233	0.9	0.85	1000	-1000	1000	0.1	0.01	0	0	1;
	2080	0.0	0.0	1.00	16.3455	8.1728	5.8844	0.9	0.85	1000	-1000	1000	0.1	0.01	0	0	1;
	148	0.0	0.0	1.00	16.3050	8.1525	5.8698	0.9	0.85	1000	-1000	1000	0.1	0.01	0	0	1;
	782	0.0	0.0	1.00	16.2915	8.1457	5.8649	0.9	0.85	1000	-1000	1000	0.1	0.01	0	0	1;
	1538	0.0	0.0	1.00	16.2405	8.1203	5.8466	0.9	0.85	1000	-1000	1000	0.1	0.01	0	0	1;
	385	0.0	0.0	1.00	16.2300	8.1150	5.8428	0.9	0.85	1000	-1000	1000	0.1	0.01	0	0	1;
	372	0.0	0.0	1.00	16.2285	8.1143	5.8423	0.9	0.85	1000	-1000	1000	0.1	0.01	0	0	1;
	544	0.0	0.0	1.00	16.2285	8.1143	5.8423	0.9	0.85	1000	-1000	1000	0.1	0.01	0	0	1;
	611	0.0	0.0	1.00	16.0425	8.0213	5.7753	0.9	0.85	1000	-1000	1000	0.1	0.01	0	0	1;
	612	0.0	0.0	1.00	16.0425	8.0213	5.7753	0.9	0.85	1000	-1000	1000	0.1	0.01	0	0	1;
	755	0.0	0.0	1.00	16.0425	8.0213	5.7753	0.9	0.85	1000	-1000	1000	0.1	0.01	0	0	1;
	2300	0.0	0.0	1.00	15.8970	7.9485	5.7229	0.9	0.85	1000	-1000	1000	0.1	0.01	0	0	1;
	512	0.0	0.0	1.00	15.8235	7.9117	5.6965	0.9	0.85	1000	-1000	1000	0.1	0.01	0	0	1;
	1418	0.0	0.0	1.00	15.7080	7.8540	5.6549	0.9	0.85	1000	-1000	1000	0.1	0.01	0	0	1;
	2333	0.0	0.0	1.00	15.5820	7.7910	5.6095	0.9	0.85	1000	-1000	1000	0.1	0.01	0	0	1;
	2081	0.0	0.0	1.00	15.4515	7.7257	5.5625	0.9	0.85	1000	-1000	1000	0.1	0.01	0	0	1;
	2243	0.0	0.0	1.00	15.4515	7.7257	5.5625	0.9	0.85	1000	-1000	1000	0.1	0.01	0	0	1;
	2474	0.0	0.0	1.00	15.3000	7.6500	5.5080	0.9	0.85	1000	-1000	1000	0.1	0.01	0	0	1;
	1006	0.0	0.0	1.00	15.2985	7.6493	5.5075	0.9	0.85	1000	-1000	1000	0.1	0.01	0	0	1;
	2036	0.0	0.0	1.00	15.1050	7.5525	5.4378	0.9	0.85	1000	-1000	1000	0.1	0.01	0	0	1;
	1685	0.0	0.0	1.00	15.0255	7.5127	5.4092	0.9	0.85	1000	-1000	1000	0.1	0.01	0	0	1;
	1795	0.0	0.0	1.00	15.0165	7.5082	5.4059	0.9	0.85	1000	-1000	1000	0.1	0.01	0	0	1;
	2492	0.0	0.0	1.00	15.0000	7.5000	5.4000	0.9	0.85	1000	-1000	1000	0.1	0.01	0	0	1;
	2671	0.0	0.0	1.00	15.0000	7.5000	5.4000	0.9	0.85	1000	-1000	1000	0.1	0.01	0	0	1;
	158	0.0	0.0	1.00	14.9835	7.4918	5.3941	0.9	0.85	1000	-1000	1000	0.1	0.01	0	0	1;
	2319	0.0	0.0	1.00	14.9370	7.4685	5.3773	0.9	0.85	1000	-1000	1000	0.1	0.01	0	0	1;
	98	0.0	0.0	1.00	14.9070	7.4535	5.3665	0.9	0.85	1000	-1000	1000	0.1	0.01	0	0	1;
	440	0.0	0.0	1.00	14.8770	7.4385	5.3557	0.9	0.85	1000	-1000	1000	0.1	0.01	0	0	1;
	525	0.0	0.0	1.00	14.8770	7.4385	5.3557	0.9	0.85	1000	-1000	1000	0.1	0.01	0	0	1;
	526	0.0	0.0	1.00	14.8770	7.4385	5.3557	0.9	0.85	1000	-1000	1000	0.1	0.01	0	0	1;
	2694	0.0	0.0	1.00	14.8500	7.4250	5.3460	0.9	0.85	1000	-1000	1000	0.1	0.01	0	0	1;
	2256	0.0	0.0	1.00	14.6805	7.3403	5.2850	0.9	0.85	1000	-1000	1000	0.1	0.01	0	0	1;
	915	0.0	0.0	1.00	14.4345	7.2172	5.1964	0.9	0.85	1000	-1000	1000	0.1	0.01	0	0	1;
	2429	0.0	0.0	1.00	14.4285	7.2142	5.1943	0.9	0.85	1000	-1000	1000	0.1	0.01	0	0	1;
	1161	0.0	0.0	1.00	14.4015	7.2008	5.1845	0.9	0.85	1000	-1000	1000	0.1	0.01	0	0	1;
	1929	0.0	0.0	1.00	14.3640	7.1820	5.1710	0.9	0.85	1000	-1000	1000	0.1	0.01	0	0	1;
	2643	0.0	0.0	1.00	14.2500	7.1250	5.1300	0.9	0.85	1000	-1000	1000	0.1	0.01	0	0	1;
	524	0.0	0.0	1.00	14.2005	7.1003	5.1122	0.9	0.85	1000	-1000	1000	0.1	0.01	0	0	1;
	533	0.0	0.0	1.00	14.2005	7.1003	5.1122	0.9	0.85	1000	-1000	1000	0.1	0.01	0	0	1;
	294	0.0	0.0	1.00	14.1990	7.0995	5.1116	0.9	0.85	1000	-1000	1000	0.1	0.01	0	0	1;
	534	0.0	0.0	1.00	14.1990	7.0995	5.1116	0.9	0.85	1000	-1000	1000	0.1	0.01	0	0	1;
	2307	0.0	0.0	1.00	14.0355	7.0177	5.0528	0.9	0.85	1000	-1000	1000	0.1	0.01	0	0	1;
	681	0.0	0.0	1.00	13.9995	6.9998	5.0398	0.9	0.85	1000	-1000	1000	0.1	0.01	0	0	1;
	2204	0.0	0.0	1.00	13.9275	6.9638	5.0139	0.9	0.85	1000	-1000	1000	0.1	0.01	0	0	1;
	2097	0.0	0.0	1.00	13.8735	6.9367	4.9945	0.9	0.85	1000	-1000	1000	0.1	0.01	0	0	1;
	1719	0.0	0.0	1.00	13.8075	6.9038	4.9707	0.9	0.85	1000	-1000	1000	0.1	0.01	0	0	1;
	1908	0.0	0.0	1.00	13.8075	6.9038	4.9707	0.9	0.85	1000	-1000	1000	0.1	0.01	0	0	1;
	1998	0.0	0.0	1.00	13.8060	6.9030	4.9702	0.9	0.85	1000	-1000	1000	0.1	0.01	0	0	1;
	2493	0.0	0.0	1.00	13.8000	6.9000	4.9680	0.9	0.85	1000	-1000	1000	0.1	0.01	0	0	1;
...
];

%% branch data
%	fbus	tbus	r	x	b	rateA	rateB	rateC	ratio	angle	status	angmin	angmax
mpc.branch = [
	7	 8	 0.00064	 0.0305	 0.0	 400.0	 400.0	 400.0	 1.0435	 0.6	 1	 -30.0	 30.0;
	26	 28	 0.00036	 0.02519	 0.0	 500.0	 500.0	 500.0	 1.0911	 0.0	 1	 -30.0	 30.0;
	27	 29	 0.00036	 0.02519	 0.0	 500.0	 500.0	 500.0	 1.0759	 0.0	 1	 -30.0	 30.0;
	39	 41	 0.00034	 0.02097	 0.0	 500.0	 500.0	 500.0	 1.0793	 0.0	 1	 -30.0	 30.0;
	42	 45	 0.00034	 0.02097	 0.0	 500.0	 500.0	 500.0	 1.0296	 0.0	 1	 -30.0	 30.0;
	54	 56	 0.00081	 0.03	 0.0	 400.0	 400.0	 400.0	 1.0501	 0.0	 1	 -30.0	 30.0;
	63	 65	 0.00015	 0.01071	 0.0	 1250.0	 1250.0	 1250.0	 0.9673	 0.0	 1	 -30.0	 30.0;
	64	 65	 0.00015	 0.01071	 0.0	 1250.0	 1250.0	 1250.0	 0.9665	 0.0	 0	 -30.0	 30.0;
	90	 92	 0.00075	 0.02444	 -0.00832	 330.0	 330.0	 330.0	 1.0474	 0.0	 1	 -30.0	 30.0;
	91	 93	 0.00075	 0.02469	 -0.008	 330.0	 330.0	 330.0	 1.0445	 0.0	 1	 -30.0	 30.0;
	125	 128	 0.0005	 0.02875	 -0.016	 400.0	 400.0	 400.0	 1.1172	 0.0	 1	 -30.0	 30.0;
	149	 150	 0.00064	 0.0305	 0.0	 400.0	 400.0	 400.0	 1.077	 0.0	 1	 -30.0	 30.0;
	155	 157	 0.000232	 0.023	 0.0	 500.0	 500.0	 500.0	 1.0887	 0.0	 1	 -30.0	 30.0;
	156	 158	 0.000232	 0.023	 0.0	 500.0	 500.0	 500.0	 1.0887	 0.0	 1	 -30.0	 30.0;
	169	 171	 0.00035	 0.02375	 0.0	 500.0	 500.0	 500.0	 1.0894	 0.0	 1	 -30.0	 30.0;
	183	 184	 0.00059	 0.030919	 0.0	 400.0	 400.0	 400.0	 1.0584	 0.0	 1	 -30.0	 30.0;
	190	 192	 0.0004	 0.03	 0.0	 500.0	 500.0	 500.0	 1.0855	 -3.6	 1	 -30.0	 30.0;
	2727	 157	 0.00031	 0.00338	 0.0992	 1386.0	 1386.0	 1386.0	 0.0	 0.0	 1	 -30.0	 30.0;
	2727	 158	 0.00031	 0.00338	 0.0992	 1386.0	 1386.0	 1386.0	 0.0	 0.0	 1	 -30.0	 30.0;
	2728	 68	 0.014341	 0.083531	 0.126034	 385.0	 385.0	 385.0	 0.0	 0.0	 1	 -30.0	 30.0;
	2726	 76	 0.01219	 0.070659	 0.117418	 412.0	 412.0	 412.0	 0.0	 0.0	 1	 -30.0	 30.0;
	2726	 105	 0.011781	 0.07087	 0.116838	 412.0	 412.0	 412.0	 0.0	 0.0	 1	 -30.0	 30.0;
	127	 2725	 0.001525	 0.016837	 0.50576	 1386.0	 1386.0	 1386.0	 0.0	 0.0	 1	 -30.0	 30.0;
	2729	 148	 0.001651	 0.015909	 0.046948	 316.0	 316.0	 316.0	 0.0	 0.0	 1	 -30.0	 30.0;
	2729	 149	 0.001651	 0.015909	 0.046948	 316.0	 316.0	 316.0	 0.0	 0.0	 1	 -30.0	 30.0;
	2730	 47	 0.00188	 0.02287	 0.6432	 831.0	 831.0	 831.0	 0.0	 0.0	 1	 -30.0	 30.0;
	2730	 48	 0.00188	 0.02287	 0.6432	 831.0	 831.0	 831.0	 0.0	 0.0	 1	 -30.0	 30.0;
	82	 2724	 0.002769	 0.031162	 0.89824	 1386.0	 1386.0	 1386.0	 0.0	 0.0	 1	 -30.0	 30.0;
	42	 23	 0.01345	 0.081141	 0.141134	 339.0	 339.0	 339.0	 0.0	 0.0	 1	 -30.0	 30.0;
	26	 90	 0.009091	 0.062401	 0.111417	 453.0	 453.0	 453.0	 0.0	 0.0	 1	 -30.0	 30.0;
	27	 91	 0.00868	 0.06405	 0.096994	 427.0	 427.0	 427.0	 0.0	 0.0	 1	 -30.0	 30.0;
	146	 30	 0.016961	 0.123659	 0.196988	 316.0	 316.0	 316.0	 0.0	 0.0	 1	 -30.0	 30.0;
	135	 33	 0.00512	 0.02618	 0.029621	 301.0	 301.0	 301.0	 0.0	 0.0	 1	 -30.0	 30.0;
	134	 20	 0.01068	 0.061961	 0.094961	 385.0	 385.0	 385.0	 0.0	 0.0	 1	 -30.0	 30.0;
	164	 21	 0.014651	 0.105891	 0.170852	 316.0	 316.0	 316.0	 0.0	 0.0	 1	 -30.0	 30.0;
	40	 109	 0.01488	 0.08161	 0.114805	 314.0	 314.0	 314.0	 0.0	 0.0	 1	 -30.0	 30.0;
...